3084049
  -OEChem-01032121112D

 98100  0     1  0  0  0  0  0999 V2000
   13.4662    6.5600    0.0000 Na  0  3  0  0  0  0  0  0  0  0  0  0
    4.0010    7.3100    0.0000 O   0  0  0  0  0  0  0  0  0  0  0  0
    4.8671    5.8100    0.0000 O   0  0  0  0  0  0  0  0  0  0  0  0
    2.2690    4.3100    0.0000 O   0  0  0  0  0  0  0  0  0  0  0  0
    7.4651    9.3100    0.0000 O   0  0  0  0  0  0  0  0  0  0  0  0
    5.7331    9.3100    0.0000 O   0  0  0  0  0  0  0  0  0  0  0  0
    7.4651   12.3100    0.0000 O   0  0  0  0  0  0  0  0  0  0  0  0
    4.0010    3.3100    0.0000 O   0  0  0  0  0  0  0  0  0  0  0  0
    3.1350    2.8100    0.0000 O   0  0  0  0  0  0  0  0  0  0  0  0
    5.7331    6.3100    0.0000 O   0  0  0  0  0  0  0  0  0  0  0  0
    7.4651    7.3100    0.0000 O   0  0  0  0  0  0  0  0  0  0  0  0
    5.7331   10.3100    0.0000 O   0  0  0  0  0  0  0  0  0  0  0  0
    0.5369    3.3100    0.0000 O   0  0  0  0  0  0  0  0  0  0  0  0
    9.1972   12.3100    0.0000 O   0  0  0  0  0  0  0  0  0  0  0  0
    5.7331    3.3100    0.0000 O   0  0  0  0  0  0  0  0  0  0  0  0
    0.5369    1.3100    0.0000 O   0  0  0  0  0  0  0  0  0  0  0  0
    2.2690    0.3100    0.0000 O   0  0  0  0  0  0  0  0  0  0  0  0
    4.0010   10.3100    0.0000 O   0  0  0  0  0  0  0  0  0  0  0  0
    5.7331   13.3100    0.0000 O   0  0  0  0  0  0  0  0  0  0  0  0
    3.1350    8.8100    0.0000 O   0  0  0  0  0  0  0  0  0  0  0  0
    1.4030    4.8100    0.0000 O   0  0  0  0  0  0  0  0  0  0  0  0
    4.8671    1.8100    0.0000 O   0  0  0  0  0  0  0  0  0  0  0  0
    4.0010    0.3100    0.0000 O   0  0  0  0  0  0  0  0  0  0  0  0
   10.0632   11.8100    0.0000 O   0  0  0  0  0  0  0  0  0  0  0  0
    2.2690    6.3100    0.0000 N   0  0  0  0  0  0  0  0  0  0  0  0
    9.1972   10.3100    0.0000 N   0  0  0  0  0  0  0  0  0  0  0  0
    3.1350    4.8100    0.0000 C   0  0  2  0  0  0  0  0  0  0  0  0
    3.1350    5.8100    0.0000 C   0  0  2  0  0  0  0  0  0  0  0  0
    4.0010    6.3100    0.0000 C   0  0  2  0  0  0  0  0  0  0  0  0
    4.0010    4.3100    0.0000 C   0  0  1  0  0  0  0  0  0  0  0  0
    4.8671    7.8100    0.0000 C   0  0  1  0  0  0  0  0  0  0  0  0
    4.8671    4.8100    0.0000 C   0  0  1  0  0  0  0  0  0  0  0  0
    5.7331    7.3100    0.0000 C   0  0  1  0  0  0  0  0  0  0  0  0
    6.5991    7.8100    0.0000 C   0  0  2  0  0  0  0  0  0  0  0  0
    7.4651   10.3100    0.0000 C   0  0  2  0  0  0  0  0  0  0  0  0
    6.5991    8.8100    0.0000 C   0  0  2  0  0  0  0  0  0  0  0  0
    4.8671    8.8100    0.0000 C   0  0  1  0  0  0  0  0  0  0  0  0
    8.3312   10.8100    0.0000 C   0  0  2  0  0  0  0  0  0  0  0  0
    6.5991   10.8100    0.0000 C   0  0  1  0  0  0  0  0  0  0  0  0
    2.2690    3.3100    0.0000 C   0  0  2  0  0  0  0  0  0  0  0  0
    6.5991   11.8100    0.0000 C   0  0  1  0  0  0  0  0  0  0  0  0
    1.4030    2.8100    0.0000 C   0  0  1  0  0  0  0  0  0  0  0  0
    8.3312   11.8100    0.0000 C   0  0  1  0  0  0  0  0  0  0  0  0
    5.7331    4.3100    0.0000 C   0  0  0  0  0  0  0  0  0  0  0  0
    1.4030    1.8100    0.0000 C   0  0  2  0  0  0  0  0  0  0  0  0
    2.2690    1.3100    0.0000 C   0  0  1  0  0  0  0  0  0  0  0  0
    3.1350    1.8100    0.0000 C   0  0  1  0  0  0  0  0  0  0  0  0
    4.0010    9.3100    0.0000 C   0  0  0  0  0  0  0  0  0  0  0  0
    5.7331   12.3100    0.0000 C   0  0  0  0  0  0  0  0  0  0  0  0
    1.4030    5.8100    0.0000 C   0  0  0  0  0  0  0  0  0  0  0  0
    4.0010    1.3100    0.0000 C   0  0  0  0  0  0  0  0  0  0  0  0
   10.0632   10.8100    0.0000 C   0  0  0  0  0  0  0  0  0  0  0  0
    0.5369    6.3100    0.0000 C   0  0  0  0  0  0  0  0  0  0  0  0
   10.9292   10.3100    0.0000 C   0  0  0  0  0  0  0  0  0  0  0  0
    3.1350    4.1900    0.0000 H   0  0  0  0  0  0  0  0  0  0  0  0
    3.1350    6.4300    0.0000 H   0  0  0  0  0  0  0  0  0  0  0  0
    3.4641    6.6200    0.0000 H   0  0  0  0  0  0  0  0  0  0  0  0
    4.5380    4.0000    0.0000 H   0  0  0  0  0  0  0  0  0  0  0  0
    4.3301    8.1200    0.0000 H   0  0  0  0  0  0  0  0  0  0  0  0
    5.4040    5.1200    0.0000 H   0  0  0  0  0  0  0  0  0  0  0  0
    5.1962    7.0000    0.0000 H   0  0  0  0  0  0  0  0  0  0  0  0
    6.5991    7.1900    0.0000 H   0  0  0  0  0  0  0  0  0  0  0  0
    8.0021   10.0000    0.0000 H   0  0  0  0  0  0  0  0  0  0  0  0
    6.5991    9.4300    0.0000 H   0  0  0  0  0  0  0  0  0  0  0  0
    4.8671    9.4300    0.0000 H   0  0  0  0  0  0  0  0  0  0  0  0
    8.8681   11.1200    0.0000 H   0  0  0  0  0  0  0  0  0  0  0  0
    6.0622   11.1200    0.0000 H   0  0  0  0  0  0  0  0  0  0  0  0
    1.7320    3.6200    0.0000 H   0  0  0  0  0  0  0  0  0  0  0  0
    6.5991   12.4300    0.0000 H   0  0  0  0  0  0  0  0  0  0  0  0
    2.2690    6.9300    0.0000 H   0  0  0  0  0  0  0  0  0  0  0  0
    1.4030    3.4300    0.0000 H   0  0  0  0  0  0  0  0  0  0  0  0
    8.8681   11.5000    0.0000 H   0  0  0  0  0  0  0  0  0  0  0  0
    6.3437    4.2023    0.0000 H   0  0  0  0  0  0  0  0  0  0  0  0
    5.9451    4.8926    0.0000 H   0  0  0  0  0  0  0  0  0  0  0  0
    1.4030    1.1900    0.0000 H   0  0  0  0  0  0  0  0  0  0  0  0
    2.8059    1.0000    0.0000 H   0  0  0  0  0  0  0  0  0  0  0  0
    3.6720    2.1200    0.0000 H   0  0  0  0  0  0  0  0  0  0  0  0
    4.5380    3.0000    0.0000 H   0  0  0  0  0  0  0  0  0  0  0  0
    9.1972    9.6900    0.0000 H   0  0  0  0  0  0  0  0  0  0  0  0
    6.2700    6.0000    0.0000 H   0  0  0  0  0  0  0  0  0  0  0  0
    5.1225   12.4177    0.0000 H   0  0  0  0  0  0  0  0  0  0  0  0
    5.5210   11.7274    0.0000 H   0  0  0  0  0  0  0  0  0  0  0  0
    8.0021    7.6200    0.0000 H   0  0  0  0  0  0  0  0  0  0  0  0
    5.1962   10.6200    0.0000 H   0  0  0  0  0  0  0  0  0  0  0  0
    0.0000    3.0000    0.0000 H   0  0  0  0  0  0  0  0  0  0  0  0
    9.1972   12.9300    0.0000 H   0  0  0  0  0  0  0  0  0  0  0  0
    6.2700    3.0000    0.0000 H   0  0  0  0  0  0  0  0  0  0  0  0
    0.5369    0.6900    0.0000 H   0  0  0  0  0  0  0  0  0  0  0  0
    1.7320    0.0000    0.0000 H   0  0  0  0  0  0  0  0  0  0  0  0
    0.8469    6.8469    0.0000 H   0  0  0  0  0  0  0  0  0  0  0  0
    0.0000    6.6200    0.0000 H   0  0  0  0  0  0  0  0  0  0  0  0
    0.2269    5.7731    0.0000 H   0  0  0  0  0  0  0  0  0  0  0  0
    3.4641   10.6200    0.0000 H   0  0  0  0  0  0  0  0  0  0  0  0
    5.1962   13.6200    0.0000 H   0  0  0  0  0  0  0  0  0  0  0  0
   10.6192    9.7731    0.0000 H   0  0  0  0  0  0  0  0  0  0  0  0
   11.4662   10.0000    0.0000 H   0  0  0  0  0  0  0  0  0  0  0  0
   11.2392   10.8469    0.0000 H   0  0  0  0  0  0  0  0  0  0  0  0
    5.4040    1.5000    0.0000 H   0  0  0  0  0  0  0  0  0  0  0  0
 29  2  1  6  0  0  0
 31  2  1  6  0  0  0
  3 29  1  0  0  0  0
  3 32  1  0  0  0  0
 27  4  1  6  0  0  0
 40  4  1  6  0  0  0
 35  5  1  1  0  0  0
 36  5  1  1  0  0  0
  6 36  1  0  0  0  0
  6 37  1  0  0  0  0
  7 41  1  0  0  0  0
  7 43  1  0  0  0  0
 30  8  1  1  0  0  0
  8 78  1  0  0  0  0
  9 40  1  0  0  0  0
  9 47  1  0  0  0  0
 33 10  1  1  0  0  0
 10 80  1  0  0  0  0
 34 11  1  6  0  0  0
 11 83  1  0  0  0  0
 39 12  1  6  0  0  0
 12 84  1  0  0  0  0
 42 13  1  1  0  0  0
 13 85  1  0  0  0  0
 43 14  1  1  0  0  0
 14 86  1  0  0  0  0
 15 44  1  0  0  0  0
 15 87  1  0  0  0  0
 45 16  1  6  0  0  0
 16 88  1  0  0  0  0
 46 17  1  1  0  0  0
 17 89  1  0  0  0  0
 18 48  1  0  0  0  0
 18 93  1  0  0  0  0
 19 49  1  0  0  0  0
 19 94  1  0  0  0  0
 20 48  2  0  0  0  0
 21 50  2  0  0  0  0
 22 51  1  0  0  0  0
 22 98  1  0  0  0  0
 23 51  2  0  0  0  0
 24 52  2  0  0  0  0
 28 25  1  1  0  0  0
 25 50  1  0  0  0  0
 25 70  1  0  0  0  0
 38 26  1  6  0  0  0
 26 52  1  0  0  0  0
 26 79  1  0  0  0  0
 27 28  1  0  0  0  0
 27 30  1  0  0  0  0
 27 55  1  0  0  0  0
 28 29  1  0  0  0  0
 28 56  1  0  0  0  0
 29 57  1  0  0  0  0
 30 32  1  0  0  0  0
 30 58  1  0  0  0  0
 31 33  1  0  0  0  0
 31 37  1  0  0  0  0
 31 59  1  0  0  0  0
 32 44  1  6  0  0  0
 32 60  1  0  0  0  0
 33 34  1  0  0  0  0
 33 61  1  0  0  0  0
 34 36  1  0  0  0  0
 34 62  1  0  0  0  0
 35 38  1  0  0  0  0
 35 39  1  0  0  0  0
 35 63  1  0  0  0  0
 36 64  1  0  0  0  0
 37 48  1  1  0  0  0
 37 65  1  0  0  0  0
 38 43  1  0  0  0  0
 38 66  1  0  0  0  0
 39 41  1  0  0  0  0
 39 67  1  0  0  0  0
 40 42  1  0  0  0  0
 40 68  1  0  0  0  0
 41 49  1  1  0  0  0
 41 69  1  0  0  0  0
 42 45  1  0  0  0  0
 42 71  1  0  0  0  0
 43 72  1  0  0  0  0
 44 73  1  0  0  0  0
 44 74  1  0  0  0  0
 45 46  1  0  0  0  0
 45 75  1  0  0  0  0
 46 47  1  0  0  0  0
 46 76  1  0  0  0  0
 47 51  1  6  0  0  0
 47 77  1  0  0  0  0
 49 81  1  0  0  0  0
 49 82  1  0  0  0  0
 50 53  1  0  0  0  0
 52 54  1  0  0  0  0
 53 90  1  0  0  0  0
 53 91  1  0  0  0  0
 53 92  1  0  0  0  0
 54 95  1  0  0  0  0
 54 96  1  0  0  0  0
 54 97  1  0  0  0  0
M  CHG  1   1   1
M  END
> <PUBCHEM_COMPOUND_CID>
3084049

> <PUBCHEM_COMPOUND_CANONICALIZED>
1

> <PUBCHEM_CACTVS_COMPLEXITY>
1300

> <PUBCHEM_CACTVS_HBOND_ACCEPTOR>
23

> <PUBCHEM_CACTVS_HBOND_DONOR>
14

> <PUBCHEM_CACTVS_ROTATABLE_BOND>
12

> <PUBCHEM_CACTVS_SUBSKEYS>
AAADcfB7PiAAAAAAAAAAAAAAAAAAAAAAAAAkSJEgAAAAAAAAAAAAHgAQCAAACDzxgAcCCALABgAIAAGQGAIAAAAAAAAAAIFIAAATEBYAgAQnQAAHNgCXAAH6fA9AAAAAAAAAAAAAAAAAAAAAAAAAAAAAAA==

> <PUBCHEM_IUPAC_OPENEYE_NAME>
sodium;(2S,3S,4S,5R,6R)-6-[(2S,3R,4R,5S,6R)-3-acetamido-2-[(2S,3S,4R,5R,6R)-6-[(2R,3R,4R,5S,6R)-3-acetamido-2,5-dihydroxy-6-(hydroxymethyl)tetrahydropyran-4-yl]oxy-2-carboxy-4,5-dihydroxy-tetrahydropyran-3-yl]oxy-5-hydroxy-6-(hydroxymethyl)tetrahydropyran-4-yl]oxy-3,4,5-trihydroxy-tetrahydropyran-2-carboxylic acid

> <PUBCHEM_IUPAC_CAS_NAME>
sodium;(2S,3S,4S,5R,6R)-6-[[(2S,3R,4R,5S,6R)-3-acetamido-2-[[(2S,3S,4R,5R,6R)-6-[[(2R,3R,4R,5S,6R)-3-acetamido-2,5-dihydroxy-6-(hydroxymethyl)-4-oxanyl]oxy]-2-carboxy-4,5-dihydroxy-3-oxanyl]oxy]-5-hydroxy-6-(hydroxymethyl)-4-oxanyl]oxy]-3,4,5-trihydroxy-2-oxanecarboxylic acid

> <PUBCHEM_IUPAC_NAME_MARKUP>
sodium;(2<I>S</I>,3<I>S</I>,4<I>S</I>,5<I>R</I>,6<I>R</I>)-6-[(2<I>S</I>,3<I>R</I>,4<I>R</I>,5<I>S</I>,6<I>R</I>)-3-acetamido-2-[(2<I>S</I>,3<I>S</I>,4<I>R</I>,5<I>R</I>,6<I>R</I>)-6-[(2<I>R</I>,3<I>R</I>,4<I>R</I>,5<I>S</I>,6<I>R</I>)-3-acetamido-2,5-dihydroxy-6-(hydroxymethyl)oxan-4-yl]oxy-2-carboxy-4,5-dihydroxyoxan-3-yl]oxy-5-hydroxy-6-(hydroxymethyl)oxan-4-yl]oxy-3,4,5-trihydroxyoxane-2-carboxylic acid

> <PUBCHEM_IUPAC_NAME>
sodium;(2S,3S,4S,5R,6R)-6-[(2S,3R,4R,5S,6R)-3-acetamido-2-[(2S,3S,4R,5R,6R)-6-[(2R,3R,4R,5S,6R)-3-acetamido-2,5-dihydroxy-6-(hydroxymethyl)oxan-4-yl]oxy-2-carboxy-4,5-dihydroxyoxan-3-yl]oxy-5-hydroxy-6-(hydroxymethyl)oxan-4-yl]oxy-3,4,5-trihydroxyoxane-2-carboxylic acid

> <PUBCHEM_IUPAC_SYSTEMATIC_NAME>
sodium;(2S,3S,4S,5R,6R)-6-[(2S,3R,4R,5S,6R)-3-acetamido-2-[(2S,3S,4R,5R,6R)-6-[(2R,3S,4R,5R,6R)-5-acetamido-2-(hydroxymethyl)-3,6-bis(oxidanyl)oxan-4-yl]oxy-2-carboxy-4,5-bis(oxidanyl)oxan-3-yl]oxy-6-(hydroxymethyl)-5-oxidanyl-oxan-4-yl]oxy-3,4,5-tris(oxidanyl)oxane-2-carboxylic acid

> <PUBCHEM_IUPAC_TRADITIONAL_NAME>
sodium;(2S,3S,4S,5R,6R)-6-[(2S,3R,4R,5S,6R)-3-acetamido-2-[(2S,3S,4R,5R,6R)-6-[(2R,3R,4R,5S,6R)-3-acetamido-2,5-dihydroxy-6-methylol-tetrahydropyran-4-yl]oxy-2-carboxy-4,5-dihydroxy-tetrahydropyran-3-yl]oxy-5-hydroxy-6-methylol-tetrahydropyran-4-yl]oxy-3,4,5-trihydroxy-tetrahydropyran-2-carboxylic acid

> <PUBCHEM_IUPAC_INCHI>
InChI=1S/C28H44N2O23.Na/c1-5(33)29-9-18(11(35)7(3-31)47-25(9)46)49-28-17(41)15(39)20(22(53-28)24(44)45)51-26-10(30-6(2)34)19(12(36)8(4-32)48-26)50-27-16(40)13(37)14(38)21(52-27)23(42)43;/h7-22,25-28,31-32,35-41,46H,3-4H2,1-2H3,(H,29,33)(H,30,34)(H,42,43)(H,44,45);/q;+1/t7-,8-,9-,10-,11-,12-,13+,14+,15-,16-,17-,18-,19-,20+,21+,22+,25-,26+,27-,28-;/m1./s1

> <PUBCHEM_IUPAC_INCHIKEY>
YWIVKILSMZOHHF-QJZPQSOGSA-N

> <PUBCHEM_EXACT_MASS>
799.223255

> <PUBCHEM_MOLECULAR_FORMULA>
C28H44N2NaO23+

> <PUBCHEM_MOLECULAR_WEIGHT>
799.6

> <PUBCHEM_OPENEYE_CAN_SMILES>
CC(=O)NC1C(C(C(OC1O)CO)O)OC2C(C(C(C(O2)C(=O)O)OC3C(C(C(C(O3)CO)O)OC4C(C(C(C(O4)C(=O)O)O)O)O)NC(=O)C)O)O.[Na+]

> <PUBCHEM_OPENEYE_ISO_SMILES>
CC(=O)N[C@@H]1[C@H]([C@@H]([C@H](O[C@H]1O)CO)O)O[C@H]2[C@@H]([C@H]([C@@H]([C@H](O2)C(=O)O)O[C@H]3[C@@H]([C@H]([C@@H]([C@H](O3)CO)O)O[C@H]4[C@@H]([C@H]([C@@H]([C@H](O4)C(=O)O)O)O)O)NC(=O)C)O)O.[Na+]

> <PUBCHEM_CACTVS_TPSA>
400

> <PUBCHEM_MONOISOTOPIC_WEIGHT>
799.223255

> <PUBCHEM_TOTAL_CHARGE>
1

> <PUBCHEM_HEAVY_ATOM_COUNT>
54

> <PUBCHEM_ATOM_DEF_STEREO_COUNT>
20

> <PUBCHEM_ATOM_UDEF_STEREO_COUNT>
0

> <PUBCHEM_BOND_DEF_STEREO_COUNT>
0

> <PUBCHEM_BOND_UDEF_STEREO_COUNT>
0

> <PUBCHEM_ISOTOPIC_ATOM_COUNT>
0

> <PUBCHEM_COMPONENT_COUNT>
2

> <PUBCHEM_CACTVS_TAUTO_COUNT>
-1

> <PUBCHEM_COORDINATE_TYPE>
1
5
255

> <PUBCHEM_BONDANNOTATIONS>
33  10  5
34  11  6
39  12  6
42  13  5
43  14  5
45  16  6
46  17  5
29  2  6
31  2  6
28  25  5
38  26  6
32  44  6
37  48  5
27  4  6
40  4  6
41  49  5
47  51  6
35  5  5
36  5  5
30  8  5

$$$$
