
 OpenBabel01052111283D

 60 59  0  0  0  0  0  0  0  0999 V2000
    0.0425   -0.2497   -0.8589 O   0  0  0  0  0  0  0  0  0  0  0  0
    2.5446    1.4527    1.2893 O   0  0  0  0  0  0  0  0  0  0  0  0
    3.1162    0.0505   -2.6782 N   0  0  0  0  0  0  0  0  0  0  0  0
    4.4022    0.4005   -3.2868 C   0  0  0  0  0  0  0  0  0  0  0  0
    5.6217    0.8032   -2.4341 C   0  0  0  0  0  0  0  0  0  0  0  0
    6.4347   -0.2687   -1.6846 C   0  0  0  0  0  0  0  0  0  0  0  0
    2.0427    1.0380   -2.7847 C   0  0  0  0  0  0  0  0  0  0  0  0
    3.1280   -0.8612   -1.5561 C   0  0  0  0  0  0  0  0  0  0  0  0
    6.6434   -1.5925   -2.4275 C   0  0  0  0  0  0  0  0  0  0  0  0
    7.9125   -2.3456   -2.0126 C   0  0  0  0  0  0  0  0  0  0  0  0
    0.6090    0.5649   -3.1060 C   0  0  0  0  0  0  0  0  0  0  0  0
    3.2763   -0.4248   -0.0842 C   0  0  0  0  0  0  0  0  0  0  0  0
    8.0197   -2.7419   -0.5371 C   0  0  0  0  0  0  0  0  0  0  0  0
   -0.0647   -0.5097   -2.2565 C   0  0  0  0  0  0  0  0  0  0  0  0
    3.4792    1.0431    0.2827 C   0  0  0  0  0  0  0  0  0  0  0  0
    7.0097   -3.7808   -0.0436 C   0  0  0  0  0  0  0  0  0  0  0  0
    7.0778   -5.1050   -0.7902 C   0  0  0  0  0  0  0  0  0  0  0  0
   -0.4326   -1.3541   -0.0837 C   0  0  0  0  0  0  0  0  0  0  0  0
    1.4721    2.2594    0.8039 C   0  0  0  0  0  0  0  0  0  0  0  0
   -0.3193   -1.0389    1.3973 C   0  0  0  0  0  0  0  0  0  0  0  0
    1.9156    3.6950    0.5776 C   0  0  0  0  0  0  0  0  0  0  0  0
    4.6903   -0.4368   -3.9327 H   0  0  0  0  0  0  0  0  0  0  0  0
    4.2501    1.2246   -3.9957 H   0  0  0  0  0  0  0  0  0  0  0  0
    6.3284    1.2825   -3.1278 H   0  0  0  0  0  0  0  0  0  0  0  0
    5.3493    1.6014   -1.7358 H   0  0  0  0  0  0  0  0  0  0  0  0
    7.4147    0.1767   -1.4654 H   0  0  0  0  0  0  0  0  0  0  0  0
    5.9895   -0.4667   -0.7071 H   0  0  0  0  0  0  0  0  0  0  0  0
    2.2774    1.7234   -3.6105 H   0  0  0  0  0  0  0  0  0  0  0  0
    2.0161    1.6921   -1.9190 H   0  0  0  0  0  0  0  0  0  0  0  0
    2.2247   -1.4727   -1.6064 H   0  0  0  0  0  0  0  0  0  0  0  0
    3.8812   -1.6313   -1.7477 H   0  0  0  0  0  0  0  0  0  0  0  0
    5.7814   -2.2486   -2.2819 H   0  0  0  0  0  0  0  0  0  0  0  0
    6.7149   -1.4018   -3.5040 H   0  0  0  0  0  0  0  0  0  0  0  0
    8.0060   -3.2393   -2.6406 H   0  0  0  0  0  0  0  0  0  0  0  0
    8.7774   -1.7171   -2.2587 H   0  0  0  0  0  0  0  0  0  0  0  0
    0.5702    0.2399   -4.1532 H   0  0  0  0  0  0  0  0  0  0  0  0
   -0.0230    1.4631   -3.0481 H   0  0  0  0  0  0  0  0  0  0  0  0
    2.4307   -0.8311    0.4716 H   0  0  0  0  0  0  0  0  0  0  0  0
    4.1379   -0.9747    0.3170 H   0  0  0  0  0  0  0  0  0  0  0  0
    9.0289   -3.1411   -0.3708 H   0  0  0  0  0  0  0  0  0  0  0  0
    7.9427   -1.8490    0.0939 H   0  0  0  0  0  0  0  0  0  0  0  0
    0.3479   -1.4934   -2.5035 H   0  0  0  0  0  0  0  0  0  0  0  0
   -1.1307   -0.5389   -2.5144 H   0  0  0  0  0  0  0  0  0  0  0  0
    4.4638    1.1395    0.7546 H   0  0  0  0  0  0  0  0  0  0  0  0
    3.4914    1.7278   -0.5600 H   0  0  0  0  0  0  0  0  0  0  0  0
    7.2169   -3.9760    1.0164 H   0  0  0  0  0  0  0  0  0  0  0  0
    5.9914   -3.3810   -0.0942 H   0  0  0  0  0  0  0  0  0  0  0  0
    8.1052   -5.4797   -0.8422 H   0  0  0  0  0  0  0  0  0  0  0  0
    6.4708   -5.8586   -0.2775 H   0  0  0  0  0  0  0  0  0  0  0  0
    6.6918   -5.0067   -1.8089 H   0  0  0  0  0  0  0  0  0  0  0  0
   -1.4795   -1.5530   -0.3354 H   0  0  0  0  0  0  0  0  0  0  0  0
    0.1638   -2.2450   -0.3121 H   0  0  0  0  0  0  0  0  0  0  0  0
    1.0386    1.8384   -0.1020 H   0  0  0  0  0  0  0  0  0  0  0  0
    0.6828    2.2474    1.5629 H   0  0  0  0  0  0  0  0  0  0  0  0
   -0.7065   -1.8670    1.9985 H   0  0  0  0  0  0  0  0  0  0  0  0
    0.7184   -0.8676    1.6934 H   0  0  0  0  0  0  0  0  0  0  0  0
   -0.8705   -0.1276    1.6463 H   0  0  0  0  0  0  0  0  0  0  0  0
    2.7291    3.7591   -0.1512 H   0  0  0  0  0  0  0  0  0  0  0  0
    1.0833    4.3052    0.2146 H   0  0  0  0  0  0  0  0  0  0  0  0
    2.2897    4.1272    1.5106 H   0  0  0  0  0  0  0  0  0  0  0  0
  1 14  1  0  0  0  0
  1 18  1  0  0  0  0
  2 15  1  0  0  0  0
  2 19  1  0  0  0  0
  3  4  1  0  0  0  0
  3  7  1  0  0  0  0
  3  8  1  0  0  0  0
  4  5  1  0  0  0  0
  4 22  1  0  0  0  0
  4 23  1  0  0  0  0
  5  6  1  0  0  0  0
  5 24  1  0  0  0  0
  5 25  1  0  0  0  0
  6  9  1  0  0  0  0
  6 26  1  0  0  0  0
  6 27  1  0  0  0  0
  7 11  1  0  0  0  0
  7 28  1  0  0  0  0
  7 29  1  0  0  0  0
  8 12  1  0  0  0  0
  8 30  1  0  0  0  0
  8 31  1  0  0  0  0
  9 10  1  0  0  0  0
  9 32  1  0  0  0  0
  9 33  1  0  0  0  0
 10 13  1  0  0  0  0
 10 34  1  0  0  0  0
 10 35  1  0  0  0  0
 11 14  1  0  0  0  0
 11 36  1  0  0  0  0
 11 37  1  0  0  0  0
 12 15  1  0  0  0  0
 12 38  1  0  0  0  0
 12 39  1  0  0  0  0
 13 16  1  0  0  0  0
 13 40  1  0  0  0  0
 13 41  1  0  0  0  0
 14 42  1  0  0  0  0
 14 43  1  0  0  0  0
 15 44  1  0  0  0  0
 15 45  1  0  0  0  0
 16 17  1  0  0  0  0
 16 46  1  0  0  0  0
 16 47  1  0  0  0  0
 17 48  1  0  0  0  0
 17 49  1  0  0  0  0
 17 50  1  0  0  0  0
 18 20  1  0  0  0  0
 18 51  1  0  0  0  0
 18 52  1  0  0  0  0
 19 21  1  0  0  0  0
 19 53  1  0  0  0  0
 19 54  1  0  0  0  0
 20 55  1  0  0  0  0
 20 56  1  0  0  0  0
 20 57  1  0  0  0  0
 21 58  1  0  0  0  0
 21 59  1  0  0  0  0
 21 60  1  0  0  0  0
M  END
>  <MOL Chiral Flag>
0

>  <PUBCHEM_COMPOUND_CID>
3085381

>  <PUBCHEM_COMPOUND_CANONICALIZED>
1

>  <PUBCHEM_CACTVS_COMPLEXITY>
176

>  <PUBCHEM_CACTVS_HBOND_ACCEPTOR>
3

>  <PUBCHEM_CACTVS_HBOND_DONOR>
0

>  <PUBCHEM_CACTVS_ROTATABLE_BOND>
17

>  <PUBCHEM_CACTVS_SUBSKEYS>
AAADcfB6MAAAAAAAAAAAAAAAAAAAAAAAAAAAAAAAAAAAAAAAAAAAHgAAAAAACADhgAYCAAMABAAAAAAAAAAAAAAAAAAAAAAIAAAAAAIAgAAGAAACAACAAAEQgIAAAAAAAAAAAAAAAAAAAAAAAAAAAAAAAA==

>  <PUBCHEM_IUPAC_OPENEYE_NAME>
N,N-bis(3-ethoxypropyl)octan-1-amine

>  <PUBCHEM_IUPAC_CAS_NAME>
N,N-bis(3-ethoxypropyl)-1-octanamine

>  <PUBCHEM_IUPAC_NAME_MARKUP>
<I>N</I>,<I>N</I>-bis(3-ethoxypropyl)octan-1-amine

>  <PUBCHEM_IUPAC_NAME>
N,N-bis(3-ethoxypropyl)octan-1-amine

>  <PUBCHEM_IUPAC_SYSTEMATIC_NAME>
N,N-bis(3-ethoxypropyl)octan-1-amine

>  <PUBCHEM_IUPAC_TRADITIONAL_NAME>
bis(3-ethoxypropyl)-octyl-amine

>  <PUBCHEM_IUPAC_INCHI>
InChI=1S/C18H39NO2/c1-4-7-8-9-10-11-14-19(15-12-17-20-5-2)16-13-18-21-6-3/h4-18H2,1-3H3

>  <PUBCHEM_IUPAC_INCHIKEY>
LQFJXQYYUDJVSZ-UHFFFAOYSA-N

>  <PUBCHEM_XLOGP3_AA>
4.8

>  <PUBCHEM_EXACT_MASS>
301.298079

>  <PUBCHEM_MOLECULAR_FORMULA>
C18H39NO2

>  <PUBCHEM_MOLECULAR_WEIGHT>
301.5

>  <PUBCHEM_OPENEYE_CAN_SMILES>
CCCCCCCCN(CCCOCC)CCCOCC

>  <PUBCHEM_OPENEYE_ISO_SMILES>
CCCCCCCCN(CCCOCC)CCCOCC

>  <PUBCHEM_CACTVS_TPSA>
21.7

>  <PUBCHEM_MONOISOTOPIC_WEIGHT>
301.298079

>  <PUBCHEM_TOTAL_CHARGE>
0

>  <PUBCHEM_HEAVY_ATOM_COUNT>
21

>  <PUBCHEM_ATOM_DEF_STEREO_COUNT>
0

>  <PUBCHEM_ATOM_UDEF_STEREO_COUNT>
0

>  <PUBCHEM_BOND_DEF_STEREO_COUNT>
0

>  <PUBCHEM_BOND_UDEF_STEREO_COUNT>
0

>  <PUBCHEM_ISOTOPIC_ATOM_COUNT>
0

>  <PUBCHEM_COMPONENT_COUNT>
1

>  <PUBCHEM_CACTVS_TAUTO_COUNT>
-1

>  <PUBCHEM_COORDINATE_TYPE>
1
5
255

$$$$
