453618
  -OEChem-01032121312D

 97100  0     1  0  0  0  0  0999 V2000
    6.0010    0.5000    0.0000 O   0  0  0  0  0  0  0  0  0  0  0  0
    6.8671   -1.0000    0.0000 O   0  0  0  0  0  0  0  0  0  0  0  0
    4.2690   -2.5000    0.0000 O   0  0  0  0  0  0  0  0  0  0  0  0
    9.4651    2.5000    0.0000 O   0  0  0  0  0  0  0  0  0  0  0  0
    7.7331    2.5000    0.0000 O   0  0  0  0  0  0  0  0  0  0  0  0
    9.4651    5.5000    0.0000 O   0  0  0  0  0  0  0  0  0  0  0  0
    6.0010   -3.5000    0.0000 O   0  0  0  0  0  0  0  0  0  0  0  0
    5.1350   -4.0000    0.0000 O   0  0  0  0  0  0  0  0  0  0  0  0
    7.7331   -0.5000    0.0000 O   0  0  0  0  0  0  0  0  0  0  0  0
    9.4651    0.5000    0.0000 O   0  0  0  0  0  0  0  0  0  0  0  0
    7.7331    3.5000    0.0000 O   0  0  0  0  0  0  0  0  0  0  0  0
    2.5369   -3.5000    0.0000 O   0  0  0  0  0  0  0  0  0  0  0  0
   11.1972    5.5000    0.0000 O   0  0  0  0  0  0  0  0  0  0  0  0
    7.7331   -3.5000    0.0000 O   0  0  0  0  0  0  0  0  0  0  0  0
    2.5369   -5.5000    0.0000 O   0  0  0  0  0  0  0  0  0  0  0  0
    4.2690   -6.5000    0.0000 O   0  0  0  0  0  0  0  0  0  0  0  0
    6.0010    3.5000    0.0000 O   0  0  0  0  0  0  0  0  0  0  0  0
    7.7331    6.5000    0.0000 O   0  0  0  0  0  0  0  0  0  0  0  0
    5.1350    2.0000    0.0000 O   0  0  0  0  0  0  0  0  0  0  0  0
    3.4030   -2.0000    0.0000 O   0  0  0  0  0  0  0  0  0  0  0  0
    6.8671   -5.0000    0.0000 O   0  0  0  0  0  0  0  0  0  0  0  0
    6.0010   -6.5000    0.0000 O   0  0  0  0  0  0  0  0  0  0  0  0
   12.0632    5.0000    0.0000 O   0  0  0  0  0  0  0  0  0  0  0  0
    4.2690   -0.5000    0.0000 N   0  0  0  0  0  0  0  0  0  0  0  0
   11.1972    3.5000    0.0000 N   0  0  0  0  0  0  0  0  0  0  0  0
    5.1350   -2.0000    0.0000 C   0  0  3  0  0  0  0  0  0  0  0  0
    5.1350   -1.0000    0.0000 C   0  0  3  0  0  0  0  0  0  0  0  0
    6.0010   -0.5000    0.0000 C   0  0  3  0  0  0  0  0  0  0  0  0
    6.0010   -2.5000    0.0000 C   0  0  3  0  0  0  0  0  0  0  0  0
    6.8671    1.0000    0.0000 C   0  0  3  0  0  0  0  0  0  0  0  0
    6.8671   -2.0000    0.0000 C   0  0  3  0  0  0  0  0  0  0  0  0
    7.7331    0.5000    0.0000 C   0  0  3  0  0  0  0  0  0  0  0  0
    8.5991    1.0000    0.0000 C   0  0  3  0  0  0  0  0  0  0  0  0
    9.4651    3.5000    0.0000 C   0  0  3  0  0  0  0  0  0  0  0  0
    8.5991    2.0000    0.0000 C   0  0  3  0  0  0  0  0  0  0  0  0
    6.8671    2.0000    0.0000 C   0  0  3  0  0  0  0  0  0  0  0  0
   10.3312    4.0000    0.0000 C   0  0  3  0  0  0  0  0  0  0  0  0
    8.5991    4.0000    0.0000 C   0  0  3  0  0  0  0  0  0  0  0  0
    4.2690   -3.5000    0.0000 C   0  0  3  0  0  0  0  0  0  0  0  0
    8.5991    5.0000    0.0000 C   0  0  3  0  0  0  0  0  0  0  0  0
    3.4030   -4.0000    0.0000 C   0  0  3  0  0  0  0  0  0  0  0  0
   10.3312    5.0000    0.0000 C   0  0  3  0  0  0  0  0  0  0  0  0
    7.7331   -2.5000    0.0000 C   0  0  0  0  0  0  0  0  0  0  0  0
    3.4030   -5.0000    0.0000 C   0  0  3  0  0  0  0  0  0  0  0  0
    4.2690   -5.5000    0.0000 C   0  0  3  0  0  0  0  0  0  0  0  0
    5.1350   -5.0000    0.0000 C   0  0  3  0  0  0  0  0  0  0  0  0
    6.0010    2.5000    0.0000 C   0  0  0  0  0  0  0  0  0  0  0  0
    7.7331    5.5000    0.0000 C   0  0  0  0  0  0  0  0  0  0  0  0
    3.4030   -1.0000    0.0000 C   0  0  0  0  0  0  0  0  0  0  0  0
    6.0010   -5.5000    0.0000 C   0  0  0  0  0  0  0  0  0  0  0  0
   12.0632    4.0000    0.0000 C   0  0  0  0  0  0  0  0  0  0  0  0
    2.5369   -0.5000    0.0000 C   0  0  0  0  0  0  0  0  0  0  0  0
   12.9292    3.5000    0.0000 C   0  0  0  0  0  0  0  0  0  0  0  0
    4.5981   -1.6900    0.0000 H   0  0  0  0  0  0  0  0  0  0  0  0
    5.1350   -0.3800    0.0000 H   0  0  0  0  0  0  0  0  0  0  0  0
    5.4641   -0.1900    0.0000 H   0  0  0  0  0  0  0  0  0  0  0  0
    5.4641   -2.8100    0.0000 H   0  0  0  0  0  0  0  0  0  0  0  0
    6.3301    1.3100    0.0000 H   0  0  0  0  0  0  0  0  0  0  0  0
    7.4040   -1.6900    0.0000 H   0  0  0  0  0  0  0  0  0  0  0  0
    7.1962    0.1900    0.0000 H   0  0  0  0  0  0  0  0  0  0  0  0
    8.5991    0.3800    0.0000 H   0  0  0  0  0  0  0  0  0  0  0  0
   10.0021    3.1900    0.0000 H   0  0  0  0  0  0  0  0  0  0  0  0
    8.5991    2.6200    0.0000 H   0  0  0  0  0  0  0  0  0  0  0  0
    6.8671    2.6200    0.0000 H   0  0  0  0  0  0  0  0  0  0  0  0
   10.8681    4.3100    0.0000 H   0  0  0  0  0  0  0  0  0  0  0  0
    8.5991    3.3800    0.0000 H   0  0  0  0  0  0  0  0  0  0  0  0
    3.7320   -3.1900    0.0000 H   0  0  0  0  0  0  0  0  0  0  0  0
    8.5991    5.6200    0.0000 H   0  0  0  0  0  0  0  0  0  0  0  0
    4.2690    0.1200    0.0000 H   0  0  0  0  0  0  0  0  0  0  0  0
    3.9399   -4.3100    0.0000 H   0  0  0  0  0  0  0  0  0  0  0  0
   10.8681    4.6900    0.0000 H   0  0  0  0  0  0  0  0  0  0  0  0
    8.3437   -2.6077    0.0000 H   0  0  0  0  0  0  0  0  0  0  0  0
    7.9451   -1.9174    0.0000 H   0  0  0  0  0  0  0  0  0  0  0  0
    3.4030   -5.6200    0.0000 H   0  0  0  0  0  0  0  0  0  0  0  0
    4.8059   -5.8100    0.0000 H   0  0  0  0  0  0  0  0  0  0  0  0
    5.6720   -4.6900    0.0000 H   0  0  0  0  0  0  0  0  0  0  0  0
    6.5380   -3.8100    0.0000 H   0  0  0  0  0  0  0  0  0  0  0  0
   11.1972    2.8800    0.0000 H   0  0  0  0  0  0  0  0  0  0  0  0
    8.2700   -0.8100    0.0000 H   0  0  0  0  0  0  0  0  0  0  0  0
    7.1225    5.6077    0.0000 H   0  0  0  0  0  0  0  0  0  0  0  0
    7.5210    4.9174    0.0000 H   0  0  0  0  0  0  0  0  0  0  0  0
   10.0021    0.8100    0.0000 H   0  0  0  0  0  0  0  0  0  0  0  0
    7.1962    3.8100    0.0000 H   0  0  0  0  0  0  0  0  0  0  0  0
    2.0000   -3.8100    0.0000 H   0  0  0  0  0  0  0  0  0  0  0  0
   11.1972    6.1200    0.0000 H   0  0  0  0  0  0  0  0  0  0  0  0
    8.2700   -3.8100    0.0000 H   0  0  0  0  0  0  0  0  0  0  0  0
    2.5369   -6.1200    0.0000 H   0  0  0  0  0  0  0  0  0  0  0  0
    3.7320   -6.8100    0.0000 H   0  0  0  0  0  0  0  0  0  0  0  0
    2.8469    0.0369    0.0000 H   0  0  0  0  0  0  0  0  0  0  0  0
    2.0000   -0.1900    0.0000 H   0  0  0  0  0  0  0  0  0  0  0  0
    2.2269   -1.0369    0.0000 H   0  0  0  0  0  0  0  0  0  0  0  0
    5.4641    3.8100    0.0000 H   0  0  0  0  0  0  0  0  0  0  0  0
    7.1962    6.8100    0.0000 H   0  0  0  0  0  0  0  0  0  0  0  0
   12.6192    2.9631    0.0000 H   0  0  0  0  0  0  0  0  0  0  0  0
   13.4662    3.1900    0.0000 H   0  0  0  0  0  0  0  0  0  0  0  0
   13.2392    4.0369    0.0000 H   0  0  0  0  0  0  0  0  0  0  0  0
    7.4040   -5.3100    0.0000 H   0  0  0  0  0  0  0  0  0  0  0  0
  1 28  1  0  0  0  0
  1 30  1  0  0  0  0
  2 28  1  0  0  0  0
  2 31  1  0  0  0  0
  3 26  1  0  0  0  0
  3 39  1  0  0  0  0
  4 34  1  0  0  0  0
  4 35  1  0  0  0  0
  5 35  1  0  0  0  0
  5 36  1  0  0  0  0
  6 40  1  0  0  0  0
  6 42  1  0  0  0  0
  7 29  1  0  0  0  0
  7 77  1  0  0  0  0
  8 39  1  0  0  0  0
  8 46  1  0  0  0  0
  9 32  1  0  0  0  0
  9 79  1  0  0  0  0
 10 33  1  0  0  0  0
 10 82  1  0  0  0  0
 11 38  1  0  0  0  0
 11 83  1  0  0  0  0
 12 41  1  0  0  0  0
 12 84  1  0  0  0  0
 13 42  1  0  0  0  0
 13 85  1  0  0  0  0
 14 43  1  0  0  0  0
 14 86  1  0  0  0  0
 15 44  1  0  0  0  0
 15 87  1  0  0  0  0
 16 45  1  0  0  0  0
 16 88  1  0  0  0  0
 17 47  1  0  0  0  0
 17 92  1  0  0  0  0
 18 48  1  0  0  0  0
 18 93  1  0  0  0  0
 19 47  2  0  0  0  0
 20 49  2  0  0  0  0
 21 50  1  0  0  0  0
 21 97  1  0  0  0  0
 22 50  2  0  0  0  0
 23 51  2  0  0  0  0
 24 27  1  0  0  0  0
 24 49  1  0  0  0  0
 24 69  1  0  0  0  0
 25 37  1  0  0  0  0
 25 51  1  0  0  0  0
 25 78  1  0  0  0  0
 26 27  1  0  0  0  0
 26 29  1  0  0  0  0
 26 54  1  0  0  0  0
 27 28  1  0  0  0  0
 27 55  1  0  0  0  0
 28 56  1  0  0  0  0
 29 31  1  0  0  0  0
 29 57  1  0  0  0  0
 30 32  1  0  0  0  0
 30 36  1  0  0  0  0
 30 58  1  0  0  0  0
 31 43  1  0  0  0  0
 31 59  1  0  0  0  0
 32 33  1  0  0  0  0
 32 60  1  0  0  0  0
 33 35  1  0  0  0  0
 33 61  1  0  0  0  0
 34 37  1  0  0  0  0
 34 38  1  0  0  0  0
 34 62  1  0  0  0  0
 35 63  1  0  0  0  0
 36 47  1  0  0  0  0
 36 64  1  0  0  0  0
 37 42  1  0  0  0  0
 37 65  1  0  0  0  0
 38 40  1  0  0  0  0
 38 66  1  0  0  0  0
 39 41  1  0  0  0  0
 39 67  1  0  0  0  0
 40 48  1  0  0  0  0
 40 68  1  0  0  0  0
 41 44  1  0  0  0  0
 41 70  1  0  0  0  0
 42 71  1  0  0  0  0
 43 72  1  0  0  0  0
 43 73  1  0  0  0  0
 44 45  1  0  0  0  0
 44 74  1  0  0  0  0
 45 46  1  0  0  0  0
 45 75  1  0  0  0  0
 46 50  1  0  0  0  0
 46 76  1  0  0  0  0
 48 80  1  0  0  0  0
 48 81  1  0  0  0  0
 49 52  1  0  0  0  0
 51 53  1  0  0  0  0
 52 89  1  0  0  0  0
 52 90  1  0  0  0  0
 52 91  1  0  0  0  0
 53 94  1  0  0  0  0
 53 95  1  0  0  0  0
 53 96  1  0  0  0  0
M  END
> <PUBCHEM_COMPOUND_CID>
453618

> <PUBCHEM_COMPOUND_CANONICALIZED>
1

> <PUBCHEM_CACTVS_COMPLEXITY>
1300

> <PUBCHEM_CACTVS_HBOND_ACCEPTOR>
23

> <PUBCHEM_CACTVS_HBOND_DONOR>
14

> <PUBCHEM_CACTVS_ROTATABLE_BOND>
12

> <PUBCHEM_CACTVS_SUBSKEYS>
AAADcfB7PgAAAAAAAAAAAAAAAAAAAAAAAAAkSJEgAAAAAAAAAAAAHgAQCAAACDzxgAcCCALABgAIAAGQGAIAAAAAAAAAAIFIAAATEBYAgAQnQAAHNgCXAAH6fA9AAAAAAAAAAAAAAAAAAAAAAAAAAAAAAA==

> <PUBCHEM_IUPAC_OPENEYE_NAME>
6-[3-acetamido-2-[6-[3-acetamido-2,5-dihydroxy-6-(hydroxymethyl)tetrahydropyran-4-yl]oxy-2-carboxy-4,5-dihydroxy-tetrahydropyran-3-yl]oxy-5-hydroxy-6-(hydroxymethyl)tetrahydropyran-4-yl]oxy-3,4,5-trihydroxy-tetrahydropyran-2-carboxylic acid

> <PUBCHEM_IUPAC_CAS_NAME>
6-[[3-acetamido-2-[[6-[[3-acetamido-2,5-dihydroxy-6-(hydroxymethyl)-4-oxanyl]oxy]-2-carboxy-4,5-dihydroxy-3-oxanyl]oxy]-5-hydroxy-6-(hydroxymethyl)-4-oxanyl]oxy]-3,4,5-trihydroxy-2-oxanecarboxylic acid

> <PUBCHEM_IUPAC_NAME_MARKUP>
6-[3-acetamido-2-[6-[3-acetamido-2,5-dihydroxy-6-(hydroxymethyl)oxan-4-yl]oxy-2-carboxy-4,5-dihydroxyoxan-3-yl]oxy-5-hydroxy-6-(hydroxymethyl)oxan-4-yl]oxy-3,4,5-trihydroxyoxane-2-carboxylic acid

> <PUBCHEM_IUPAC_NAME>
6-[3-acetamido-2-[6-[3-acetamido-2,5-dihydroxy-6-(hydroxymethyl)oxan-4-yl]oxy-2-carboxy-4,5-dihydroxyoxan-3-yl]oxy-5-hydroxy-6-(hydroxymethyl)oxan-4-yl]oxy-3,4,5-trihydroxyoxane-2-carboxylic acid

> <PUBCHEM_IUPAC_SYSTEMATIC_NAME>
6-[3-acetamido-2-[6-[5-acetamido-2-(hydroxymethyl)-3,6-bis(oxidanyl)oxan-4-yl]oxy-2-carboxy-4,5-bis(oxidanyl)oxan-3-yl]oxy-6-(hydroxymethyl)-5-oxidanyl-oxan-4-yl]oxy-3,4,5-tris(oxidanyl)oxane-2-carboxylic acid

> <PUBCHEM_IUPAC_TRADITIONAL_NAME>
6-[3-acetamido-2-[6-(3-acetamido-2,5-dihydroxy-6-methylol-tetrahydropyran-4-yl)oxy-2-carboxy-4,5-dihydroxy-tetrahydropyran-3-yl]oxy-5-hydroxy-6-methylol-tetrahydropyran-4-yl]oxy-3,4,5-trihydroxy-tetrahydropyran-2-carboxylic acid

> <PUBCHEM_IUPAC_INCHI>
InChI=1S/C28H44N2O23/c1-5(33)29-9-18(11(35)7(3-31)47-25(9)46)49-28-17(41)15(39)20(22(53-28)24(44)45)51-26-10(30-6(2)34)19(12(36)8(4-32)48-26)50-27-16(40)13(37)14(38)21(52-27)23(42)43/h7-22,25-28,31-32,35-41,46H,3-4H2,1-2H3,(H,29,33)(H,30,34)(H,42,43)(H,44,45)

> <PUBCHEM_IUPAC_INCHIKEY>
KIUKXJAPPMFGSW-UHFFFAOYSA-N

> <PUBCHEM_XLOGP3_AA>
-7.4

> <PUBCHEM_EXACT_MASS>
776.233486

> <PUBCHEM_MOLECULAR_FORMULA>
C28H44N2O23

> <PUBCHEM_MOLECULAR_WEIGHT>
776.6

> <PUBCHEM_OPENEYE_CAN_SMILES>
CC(=O)NC1C(C(C(OC1O)CO)O)OC2C(C(C(C(O2)C(=O)O)OC3C(C(C(C(O3)CO)O)OC4C(C(C(C(O4)C(=O)O)O)O)O)NC(=O)C)O)O

> <PUBCHEM_OPENEYE_ISO_SMILES>
CC(=O)NC1C(C(C(OC1O)CO)O)OC2C(C(C(C(O2)C(=O)O)OC3C(C(C(C(O3)CO)O)OC4C(C(C(C(O4)C(=O)O)O)O)O)NC(=O)C)O)O

> <PUBCHEM_CACTVS_TPSA>
400

> <PUBCHEM_MONOISOTOPIC_WEIGHT>
776.233486

> <PUBCHEM_TOTAL_CHARGE>
0

> <PUBCHEM_HEAVY_ATOM_COUNT>
53

> <PUBCHEM_ATOM_DEF_STEREO_COUNT>
0

> <PUBCHEM_ATOM_UDEF_STEREO_COUNT>
20

> <PUBCHEM_BOND_DEF_STEREO_COUNT>
0

> <PUBCHEM_BOND_UDEF_STEREO_COUNT>
0

> <PUBCHEM_ISOTOPIC_ATOM_COUNT>
0

> <PUBCHEM_COMPONENT_COUNT>
1

> <PUBCHEM_CACTVS_TAUTO_COUNT>
-1

> <PUBCHEM_COORDINATE_TYPE>
1
5
255

> <PUBCHEM_BONDANNOTATIONS>
28  1  3
30  1  3
33  10  3
38  11  3
41  12  3
42  13  3
44  15  3
45  16  3
27  24  3
37  25  3
26  3  3
39  3  3
31  43  3
36  47  3
34  4  3
35  4  3
40  48  3
46  50  3
29  7  3
32  9  3

$$$$
