
 OpenBabel01062120573D

 70 75  0  0  0  0  0  0  0  0999 V2000
    0.9497   -0.2779   -0.8085 Cl  0  0  0  0  0  0  0  0  0  0  0  0
    3.6837    6.6568    1.5213 F   0  0  0  0  0  0  0  0  0  0  0  0
    4.9158    8.1713    2.4626 F   0  0  0  0  0  0  0  0  0  0  0  0
    3.1663    7.4223    3.4930 F   0  0  0  0  0  0  0  0  0  0  0  0
   -0.4214    7.2572    4.1304 O   0  0  0  0  0  0  0  0  0  0  0  0
    4.7773   10.9778   -3.1480 O   0  0  0  0  0  0  0  0  0  0  0  0
    0.7484    3.9256   -1.4811 O   0  0  0  0  0  0  0  0  0  0  0  0
    7.4508   -3.2411   -0.5604 O   0  0  0  0  0  0  0  0  0  0  0  0
    0.7541    8.7921    2.9966 N   0  0  0  0  0  0  0  0  0  0  0  0
    3.3263   11.0436   -1.4267 N   0  0  0  0  0  0  0  0  0  0  0  0
    3.9080    9.0043   -2.4900 N   0  0  0  0  0  0  0  0  0  0  0  0
    2.9188    3.9004   -0.9702 N   0  0  0  0  0  0  0  0  0  0  0  0
    5.6498   -1.9197   -0.3428 N   0  0  0  0  0  0  0  0  0  0  0  0
    1.0290    2.6351   -1.0966 N   0  0  0  0  0  0  0  0  0  0  0  0
   10.0869   -0.0378   -0.8241 N   0  0  0  0  0  0  0  0  0  0  0  0
    0.7019    6.4065    2.2359 C   0  0  0  0  0  0  0  0  0  0  0  0
   -0.2996    5.3123    1.9286 C   0  0  0  0  0  0  0  0  0  0  0  0
    0.9125    4.9993    2.7540 C   0  0  0  0  0  0  0  0  0  0  0  0
    0.3455    7.4919    3.1965 C   0  0  0  0  0  0  0  0  0  0  0  0
    1.5753    9.3648    2.0122 C   0  0  0  0  0  0  0  0  0  0  0  0
    2.8155    8.8760    1.5866 C   0  0  0  0  0  0  0  0  0  0  0  0
    1.0898   10.5629    1.4548 C   0  0  0  0  0  0  0  0  0  0  0  0
    3.4200    9.4814    0.4636 C   0  0  0  0  0  0  0  0  0  0  0  0
    1.7215   11.1699    0.3646 C   0  0  0  0  0  0  0  0  0  0  0  0
    3.6172    7.7956    2.2679 C   0  0  0  0  0  0  0  0  0  0  0  0
    2.8387   10.5662   -0.1957 C   0  0  0  0  0  0  0  0  0  0  0  0
    4.0320   10.3646   -2.3844 C   0  0  0  0  0  0  0  0  0  0  0  0
    2.7531    8.2138   -2.2844 C   0  0  0  0  0  0  0  0  0  0  0  0
    1.7853    6.0538   -1.7113 C   0  0  0  0  0  0  0  0  0  0  0  0
    2.9059    6.8443   -2.0172 C   0  0  0  0  0  0  0  0  0  0  0  0
    1.4687    8.7697   -2.3273 C   0  0  0  0  0  0  0  0  0  0  0  0
    1.9055    4.6389   -1.3731 C   0  0  0  0  0  0  0  0  0  0  0  0
    0.5129    6.6566   -1.7125 C   0  0  0  0  0  0  0  0  0  0  0  0
    3.1067    1.4519   -0.4462 C   0  0  0  0  0  0  0  0  0  0  0  0
    0.3522    8.0002   -2.0274 C   0  0  0  0  0  0  0  0  0  0  0  0
    2.3347    2.6472   -0.8003 C   0  0  0  0  0  0  0  0  0  0  0  0
    4.8426   -0.7779   -0.2151 C   0  0  0  0  0  0  0  0  0  0  0  0
    2.6081    0.1378   -0.5244 C   0  0  0  0  0  0  0  0  0  0  0  0
    4.4553    1.6090   -0.0788 C   0  0  0  0  0  0  0  0  0  0  0  0
    3.4742   -0.9598   -0.4083 C   0  0  0  0  0  0  0  0  0  0  0  0
    5.3069    0.5033    0.0612 C   0  0  0  0  0  0  0  0  0  0  0  0
    6.9860   -2.1020   -0.6191 C   0  0  0  0  0  0  0  0  0  0  0  0
    7.8818   -1.0127   -1.0442 C   0  0  0  0  0  0  0  0  0  0  0  0
    7.5284   -0.0215   -1.9621 C   0  0  0  0  0  0  0  0  0  0  0  0
    9.1774   -1.0042   -0.5454 C   0  0  0  0  0  0  0  0  0  0  0  0
    8.4381    0.9940   -2.2527 C   0  0  0  0  0  0  0  0  0  0  0  0
    9.6903    0.9463   -1.6596 C   0  0  0  0  0  0  0  0  0  0  0  0
    1.2825    6.7025    1.3733 H   0  0  0  0  0  0  0  0  0  0  0  0
   -1.2633    5.3390    2.4257 H   0  0  0  0  0  0  0  0  0  0  0  0
   -0.3363    4.9053    0.9259 H   0  0  0  0  0  0  0  0  0  0  0  0
    1.6973    4.4006    2.3077 H   0  0  0  0  0  0  0  0  0  0  0  0
    0.7553    4.8051    3.8106 H   0  0  0  0  0  0  0  0  0  0  0  0
    0.1311    9.4155    3.4995 H   0  0  0  0  0  0  0  0  0  0  0  0
    0.1591   10.9997    1.8142 H   0  0  0  0  0  0  0  0  0  0  0  0
    4.3724    9.0870    0.1081 H   0  0  0  0  0  0  0  0  0  0  0  0
    1.2681   12.0461   -0.0913 H   0  0  0  0  0  0  0  0  0  0  0  0
    3.1980   12.0256   -1.6377 H   0  0  0  0  0  0  0  0  0  0  0  0
    4.6803    8.5617   -2.9725 H   0  0  0  0  0  0  0  0  0  0  0  0
    3.8987    6.3995   -1.9926 H   0  0  0  0  0  0  0  0  0  0  0  0
    1.3158    9.8126   -2.5919 H   0  0  0  0  0  0  0  0  0  0  0  0
   -0.3772    6.0810   -1.4615 H   0  0  0  0  0  0  0  0  0  0  0  0
   -0.6391    8.4460   -2.0321 H   0  0  0  0  0  0  0  0  0  0  0  0
    4.8720    2.6055    0.0693 H   0  0  0  0  0  0  0  0  0  0  0  0
    3.0721   -1.9625   -0.5433 H   0  0  0  0  0  0  0  0  0  0  0  0
    6.3351    0.6832    0.3626 H   0  0  0  0  0  0  0  0  0  0  0  0
    5.1759   -2.8171   -0.3014 H   0  0  0  0  0  0  0  0  0  0  0  0
    6.5505   -0.0170   -2.4349 H   0  0  0  0  0  0  0  0  0  0  0  0
    9.5312   -1.7918    0.1159 H   0  0  0  0  0  0  0  0  0  0  0  0
    8.1763    1.8055   -2.9231 H   0  0  0  0  0  0  0  0  0  0  0  0
   10.4320    1.7171   -1.8502 H   0  0  0  0  0  0  0  0  0  0  0  0
  1 38  1  0  0  0  0
  2 25  1  0  0  0  0
  3 25  1  0  0  0  0
  4 25  1  0  0  0  0
  5 19  2  0  0  0  0
  6 27  2  0  0  0  0
  7 14  1  0  0  0  0
  7 32  1  0  0  0  0
  8 42  2  0  0  0  0
  9 19  1  0  0  0  0
  9 20  1  0  0  0  0
  9 53  1  0  0  0  0
 10 26  1  0  0  0  0
 10 27  1  0  0  0  0
 10 57  1  0  0  0  0
 11 27  1  0  0  0  0
 11 28  1  0  0  0  0
 11 58  1  0  0  0  0
 12 32  2  0  0  0  0
 12 36  1  0  0  0  0
 13 37  1  0  0  0  0
 13 42  1  0  0  0  0
 13 66  1  0  0  0  0
 14 36  2  0  0  0  0
 15 45  1  0  0  0  0
 15 47  2  0  0  0  0
 16 17  1  0  0  0  0
 16 18  1  0  0  0  0
 16 19  1  0  0  0  0
 16 48  1  0  0  0  0
 17 18  1  0  0  0  0
 17 49  1  0  0  0  0
 17 50  1  0  0  0  0
 18 51  1  0  0  0  0
 18 52  1  0  0  0  0
 20 21  2  0  0  0  0
 20 22  1  0  0  0  0
 21 23  1  0  0  0  0
 21 25  1  0  0  0  0
 22 24  2  0  0  0  0
 22 54  1  0  0  0  0
 23 26  2  0  0  0  0
 23 55  1  0  0  0  0
 24 26  1  0  0  0  0
 24 56  1  0  0  0  0
 28 30  1  0  0  0  0
 28 31  2  0  0  0  0
 29 30  2  0  0  0  0
 29 32  1  0  0  0  0
 29 33  1  0  0  0  0
 30 59  1  0  0  0  0
 31 35  1  0  0  0  0
 31 60  1  0  0  0  0
 33 35  2  0  0  0  0
 33 61  1  0  0  0  0
 34 36  1  0  0  0  0
 34 38  2  0  0  0  0
 34 39  1  0  0  0  0
 35 62  1  0  0  0  0
 37 40  2  0  0  0  0
 37 41  1  0  0  0  0
 38 40  1  0  0  0  0
 39 41  2  0  0  0  0
 39 63  1  0  0  0  0
 40 64  1  0  0  0  0
 41 65  1  0  0  0  0
 42 43  1  0  0  0  0
 43 44  1  0  0  0  0
 43 45  2  0  0  0  0
 44 46  2  0  0  0  0
 44 67  1  0  0  0  0
 45 68  1  0  0  0  0
 46 47  1  0  0  0  0
 46 69  1  0  0  0  0
 47 70  1  0  0  0  0
M  END
>  <MOL Chiral Flag>
0

>  <PUBCHEM_COMPOUND_CID>
139035057

>  <PUBCHEM_COMPOUND_CANONICALIZED>
1

>  <PUBCHEM_CACTVS_COMPLEXITY>
1120

>  <PUBCHEM_CACTVS_HBOND_ACCEPTOR>
10

>  <PUBCHEM_CACTVS_HBOND_DONOR>
4

>  <PUBCHEM_CACTVS_ROTATABLE_BOND>
8

>  <PUBCHEM_CACTVS_SUBSKEYS>
AAADceB/uYAEAAAAAAAAAAAAGAAAAWAAAAA8YMEAAAAAAAAB9AAAHwIUAAAADQrBmzQ90JbYEACpAjd3dgCCgCk1B6Ap2CE4btiILvrB35GEMYhs1QPIyee8ySCOCACAQAIDAAAQAQCABAYAAAAAAAAAAA==

>  <PUBCHEM_IUPAC_OPENEYE_NAME>
N-[3-chloro-4-[5-[3-[[4-(cyclopropanecarbonylamino)-3-(trifluoromethyl)phenyl]carbamoylamino]phenyl]-1,2,4-oxadiazol-3-yl]phenyl]pyridine-3-carboxamide

>  <PUBCHEM_IUPAC_CAS_NAME>
N-[3-chloro-4-[5-[3-[[[4-[[cyclopropyl(oxo)methyl]amino]-3-(trifluoromethyl)anilino]-oxomethyl]amino]phenyl]-1,2,4-oxadiazol-3-yl]phenyl]-3-pyridinecarboxamide

>  <PUBCHEM_IUPAC_NAME_MARKUP>
<I>N</I>-[3-chloro-4-[5-[3-[[4-(cyclopropanecarbonylamino)-3-(trifluoromethyl)phenyl]carbamoylamino]phenyl]-1,2,4-oxadiazol-3-yl]phenyl]pyridine-3-carboxamide

>  <PUBCHEM_IUPAC_NAME>
N-[3-chloro-4-[5-[3-[[4-(cyclopropanecarbonylamino)-3-(trifluoromethyl)phenyl]carbamoylamino]phenyl]-1,2,4-oxadiazol-3-yl]phenyl]pyridine-3-carboxamide

>  <PUBCHEM_IUPAC_SYSTEMATIC_NAME>
N-[3-chloranyl-4-[5-[3-[[4-(cyclopropylcarbonylamino)-3-(trifluoromethyl)phenyl]carbamoylamino]phenyl]-1,2,4-oxadiazol-3-yl]phenyl]pyridine-3-carboxamide

>  <PUBCHEM_IUPAC_TRADITIONAL_NAME>
N-[3-chloro-4-[5-[3-[[4-(cyclopropanecarbonylamino)-3-(trifluoromethyl)phenyl]carbamoylamino]phenyl]-1,2,4-oxadiazol-3-yl]phenyl]nicotinamide

>  <PUBCHEM_IUPAC_INCHI>
InChI=1S/C32H23ClF3N7O4/c33-25-15-22(38-29(45)19-4-2-12-37-16-19)8-10-23(25)27-42-30(47-43-27)18-3-1-5-20(13-18)39-31(46)40-21-9-11-26(24(14-21)32(34,35)36)41-28(44)17-6-7-17/h1-5,8-17H,6-7H2,(H,38,45)(H,41,44)(H2,39,40,46)

>  <PUBCHEM_IUPAC_INCHIKEY>
IIUNSVLRVWGJRM-UHFFFAOYSA-N

>  <PUBCHEM_XLOGP3_AA>
4.9

>  <PUBCHEM_EXACT_MASS>
661.145214

>  <PUBCHEM_MOLECULAR_FORMULA>
C32H23ClF3N7O4

>  <PUBCHEM_MOLECULAR_WEIGHT>
662

>  <PUBCHEM_OPENEYE_CAN_SMILES>
C1CC1C(=O)NC2=C(C=C(C=C2)NC(=O)NC3=CC=CC(=C3)C4=NC(=NO4)C5=C(C=C(C=C5)NC(=O)C6=CN=CC=C6)Cl)C(F)(F)F

>  <PUBCHEM_OPENEYE_ISO_SMILES>
C1CC1C(=O)NC2=C(C=C(C=C2)NC(=O)NC3=CC=CC(=C3)C4=NC(=NO4)C5=C(C=C(C=C5)NC(=O)C6=CN=CC=C6)Cl)C(F)(F)F

>  <PUBCHEM_CACTVS_TPSA>
151

>  <PUBCHEM_MONOISOTOPIC_WEIGHT>
661.145214

>  <PUBCHEM_TOTAL_CHARGE>
0

>  <PUBCHEM_HEAVY_ATOM_COUNT>
47

>  <PUBCHEM_ATOM_DEF_STEREO_COUNT>
0

>  <PUBCHEM_ATOM_UDEF_STEREO_COUNT>
0

>  <PUBCHEM_BOND_DEF_STEREO_COUNT>
0

>  <PUBCHEM_BOND_UDEF_STEREO_COUNT>
0

>  <PUBCHEM_ISOTOPIC_ATOM_COUNT>
0

>  <PUBCHEM_COMPONENT_COUNT>
1

>  <PUBCHEM_CACTVS_TAUTO_COUNT>
-1

>  <PUBCHEM_COORDINATE_TYPE>
1
5
255

>  <PUBCHEM_BONDANNOTATIONS>
12  32  8
12  36  8
14  36  8
15  45  8
15  47  8
20  21  8
20  22  8
21  23  8
22  24  8
23  26  8
24  26  8
28  30  8
28  31  8
29  30  8
29  33  8
31  35  8
33  35  8
34  38  8
34  39  8
37  40  8
37  41  8
38  40  8
39  41  8
43  44  8
43  45  8
44  46  8
46  47  8
7  14  8
7  32  8

$$$$
