
 OpenBabel01272113573D

112118  0  0  0  0  0  0  0  0999 V2000
    0.5776   -3.2865    1.2861 P   0  0  0  0  0  0  0  0  0  0  0  0
   -0.6871   -2.4474    1.7900 O   0  0  0  0  0  0  0  0  0  0  0  0
    0.7384   -2.9857   -0.3200 O   0  0  0  0  0  0  0  0  0  0  0  0
    1.8026   -2.5399    2.0267 O   0  0  0  0  0  0  0  0  0  0  0  0
    0.5531   -4.7241    1.6848 O   0  0  0  0  0  0  0  0  0  0  0  0
   -3.5230   -2.8902    1.8324 C   0  0  0  0  0  0  0  0  0  0  0  0
    3.4629   -2.9619   -1.9399 C   0  0  0  0  0  0  0  0  0  0  0  0
   -2.8283   -1.7955    1.0595 C   0  0  0  0  0  0  0  0  0  0  0  0
    2.7558   -1.8820   -1.0730 C   0  0  0  0  0  0  0  0  0  0  0  0
   -0.7769   -0.6541    0.1389 C   0  0  0  0  0  0  0  0  0  0  0  0
    0.7383   -0.6456   -0.0822 C   0  0  0  0  0  0  0  0  0  0  0  0
   -4.2996   -2.6019    3.0066 C   0  0  0  0  0  0  0  0  0  0  0  0
    3.4577   -4.3694   -1.6676 C   0  0  0  0  0  0  0  0  0  0  0  0
   -3.4908   -4.2562    1.4099 C   0  0  0  0  0  0  0  0  0  0  0  0
    4.2529   -2.5955   -3.1061 C   0  0  0  0  0  0  0  0  0  0  0  0
   -1.4203   -1.6412    0.9572 C   0  0  0  0  0  0  0  0  0  0  0  0
    1.3911   -1.8072   -0.6444 C   0  0  0  0  0  0  0  0  0  0  0  0
   -4.5839   -1.1834    3.5136 C   0  0  0  0  0  0  0  0  0  0  0  0
    2.7210   -5.0573   -0.5405 C   0  0  0  0  0  0  0  0  0  0  0  0
   -2.6067   -4.8336    0.3030 C   0  0  0  0  0  0  0  0  0  0  0  0
    4.5509   -1.1506   -3.5498 C   0  0  0  0  0  0  0  0  0  0  0  0
   -4.8297   -4.9857    3.3363 C   0  0  0  0  0  0  0  0  0  0  0  0
    4.7869   -4.9510   -3.6680 C   0  0  0  0  0  0  0  0  0  0  0  0
   -1.6290    0.3300   -0.4788 C   0  0  0  0  0  0  0  0  0  0  0  0
    1.5848    0.4249    0.3215 C   0  0  0  0  0  0  0  0  0  0  0  0
   -4.8831   -3.6626    3.7554 C   0  0  0  0  0  0  0  0  0  0  0  0
    4.1148   -5.3021   -2.5175 C   0  0  0  0  0  0  0  0  0  0  0  0
   -4.2281   -5.2349    2.1169 C   0  0  0  0  0  0  0  0  0  0  0  0
    4.8800   -3.5948   -3.9279 C   0  0  0  0  0  0  0  0  0  0  0  0
   -3.6030   -0.8315    0.4057 C   0  0  0  0  0  0  0  0  0  0  0  0
    3.5145   -0.7915   -0.6201 C   0  0  0  0  0  0  0  0  0  0  0  0
   -3.0358    0.2520   -0.2804 C   0  0  0  0  0  0  0  0  0  0  0  0
    2.9775    0.3284    0.0542 C   0  0  0  0  0  0  0  0  0  0  0  0
   -5.2367   -6.1332    4.2435 C   0  0  0  0  0  0  0  0  0  0  0  0
    5.3432   -6.0524   -4.5478 C   0  0  0  0  0  0  0  0  0  0  0  0
   -6.0794   -0.8654    3.3459 C   0  0  0  0  0  0  0  0  0  0  0  0
   -4.1596   -0.9629    4.9711 C   0  0  0  0  0  0  0  0  0  0  0  0
    1.5391   -5.8404   -1.1332 C   0  0  0  0  0  0  0  0  0  0  0  0
    3.5610   -5.9575    0.3714 C   0  0  0  0  0  0  0  0  0  0  0  0
   -1.8369   -6.0578    0.8496 C   0  0  0  0  0  0  0  0  0  0  0  0
   -3.3903   -5.2757   -0.9331 C   0  0  0  0  0  0  0  0  0  0  0  0
    6.0340   -0.8197   -3.2956 C   0  0  0  0  0  0  0  0  0  0  0  0
    4.2092   -0.8723   -5.0223 C   0  0  0  0  0  0  0  0  0  0  0  0
   -1.1747    1.4229   -1.2660 C   0  0  0  0  0  0  0  0  0  0  0  0
    1.1452    1.5597    1.0495 C   0  0  0  0  0  0  0  0  0  0  0  0
   -3.8870    1.2667   -0.7531 C   0  0  0  0  0  0  0  0  0  0  0  0
    3.8450    1.3529    0.4672 C   0  0  0  0  0  0  0  0  0  0  0  0
   -5.9819   -7.2683    3.5301 C   0  0  0  0  0  0  0  0  0  0  0  0
   -3.9702   -6.6917    4.9124 C   0  0  0  0  0  0  0  0  0  0  0  0
    4.9045   -5.9140   -6.0059 C   0  0  0  0  0  0  0  0  0  0  0  0
    6.8595   -6.1816   -4.4252 C   0  0  0  0  0  0  0  0  0  0  0  0
   -2.0309    2.4364   -1.7140 C   0  0  0  0  0  0  0  0  0  0  0  0
    2.0241    2.5676    1.4548 C   0  0  0  0  0  0  0  0  0  0  0  0
   -3.3868    2.3678   -1.4400 C   0  0  0  0  0  0  0  0  0  0  0  0
    3.3744    2.4661    1.1591 C   0  0  0  0  0  0  0  0  0  0  0  0
   -4.0249   -0.4484    2.9309 H   0  0  0  0  0  0  0  0  0  0  0  0
    2.4105   -4.2861    0.1343 H   0  0  0  0  0  0  0  0  0  0  0  0
   -1.8731   -4.0928   -0.0163 H   0  0  0  0  0  0  0  0  0  0  0  0
    3.9405   -0.4425   -2.9905 H   0  0  0  0  0  0  0  0  0  0  0  0
   -5.3913   -3.4474    4.6933 H   0  0  0  0  0  0  0  0  0  0  0  0
    4.0569   -6.3643   -2.2799 H   0  0  0  0  0  0  0  0  0  0  0  0
   -4.2253   -6.2589    1.7542 H   0  0  0  0  0  0  0  0  0  0  0  0
    5.4648   -3.2919   -4.7944 H   0  0  0  0  0  0  0  0  0  0  0  0
   -4.6885   -0.9023    0.4809 H   0  0  0  0  0  0  0  0  0  0  0  0
    4.5918   -0.8163   -0.7836 H   0  0  0  0  0  0  0  0  0  0  0  0
   -5.9024   -5.7472    5.0250 H   0  0  0  0  0  0  0  0  0  0  0  0
    4.9203   -7.0073   -4.2029 H   0  0  0  0  0  0  0  0  0  0  0  0
   -6.7082   -1.5082    3.9737 H   0  0  0  0  0  0  0  0  0  0  0  0
   -6.2921    0.1719    3.6240 H   0  0  0  0  0  0  0  0  0  0  0  0
   -6.4013   -1.0090    2.3084 H   0  0  0  0  0  0  0  0  0  0  0  0
   -3.0975   -1.1900    5.1073 H   0  0  0  0  0  0  0  0  0  0  0  0
   -4.3220    0.0821    5.2587 H   0  0  0  0  0  0  0  0  0  0  0  0
   -4.7294   -1.5792    5.6742 H   0  0  0  0  0  0  0  0  0  0  0  0
    1.8684   -6.6674   -1.7739 H   0  0  0  0  0  0  0  0  0  0  0  0
    0.9417   -6.2916   -0.3447 H   0  0  0  0  0  0  0  0  0  0  0  0
    0.8931   -5.2031   -1.7488 H   0  0  0  0  0  0  0  0  0  0  0  0
    4.3758   -5.3847    0.8259 H   0  0  0  0  0  0  0  0  0  0  0  0
    2.9353   -6.3463    1.1839 H   0  0  0  0  0  0  0  0  0  0  0  0
    3.9923   -6.8171   -0.1467 H   0  0  0  0  0  0  0  0  0  0  0  0
   -2.4542   -6.9607    0.9139 H   0  0  0  0  0  0  0  0  0  0  0  0
   -1.0109   -6.3146    0.1916 H   0  0  0  0  0  0  0  0  0  0  0  0
   -1.4577   -5.8765    1.8612 H   0  0  0  0  0  0  0  0  0  0  0  0
   -3.9920   -4.4599   -1.3414 H   0  0  0  0  0  0  0  0  0  0  0  0
   -2.6966   -5.6155   -1.7116 H   0  0  0  0  0  0  0  0  0  0  0  0
   -4.0610   -6.1139   -0.7107 H   0  0  0  0  0  0  0  0  0  0  0  0
    6.7012   -1.4115   -3.9342 H   0  0  0  0  0  0  0  0  0  0  0  0
    6.2390    0.2359   -3.5019 H   0  0  0  0  0  0  0  0  0  0  0  0
    6.3220   -1.0220   -2.2585 H   0  0  0  0  0  0  0  0  0  0  0  0
    3.1621   -1.1117   -5.2320 H   0  0  0  0  0  0  0  0  0  0  0  0
    4.3671    0.1880   -5.2514 H   0  0  0  0  0  0  0  0  0  0  0  0
    4.8330   -1.4410   -5.7195 H   0  0  0  0  0  0  0  0  0  0  0  0
   -0.1217    1.5286   -1.5166 H   0  0  0  0  0  0  0  0  0  0  0  0
    0.0983    1.6740    1.3263 H   0  0  0  0  0  0  0  0  0  0  0  0
   -4.9586    1.2214   -0.5628 H   0  0  0  0  0  0  0  0  0  0  0  0
    4.9121    1.2899    0.2573 H   0  0  0  0  0  0  0  0  0  0  0  0
   -5.3426   -7.8039    2.8187 H   0  0  0  0  0  0  0  0  0  0  0  0
   -6.3321   -8.0092    4.2573 H   0  0  0  0  0  0  0  0  0  0  0  0
   -6.8514   -6.8904    2.9831 H   0  0  0  0  0  0  0  0  0  0  0  0
   -3.4515   -5.9146    5.4853 H   0  0  0  0  0  0  0  0  0  0  0  0
   -4.2125   -7.5113    5.5959 H   0  0  0  0  0  0  0  0  0  0  0  0
   -3.2587   -7.0771    4.1707 H   0  0  0  0  0  0  0  0  0  0  0  0
    5.3602   -5.0454   -6.4909 H   0  0  0  0  0  0  0  0  0  0  0  0
    5.1899   -6.8054   -6.5758 H   0  0  0  0  0  0  0  0  0  0  0  0
    3.8156   -5.8106   -6.0770 H   0  0  0  0  0  0  0  0  0  0  0  0
    7.1574   -6.3266   -3.3805 H   0  0  0  0  0  0  0  0  0  0  0  0
    7.2150   -7.0498   -4.9923 H   0  0  0  0  0  0  0  0  0  0  0  0
    7.3760   -5.2944   -4.8042 H   0  0  0  0  0  0  0  0  0  0  0  0
   -1.6304    3.2834   -2.2660 H   0  0  0  0  0  0  0  0  0  0  0  0
    1.6505    3.4269    2.0069 H   0  0  0  0  0  0  0  0  0  0  0  0
   -4.0564    3.1595   -1.7666 H   0  0  0  0  0  0  0  0  0  0  0  0
    4.0653    3.2444    1.4739 H   0  0  0  0  0  0  0  0  0  0  0  0
    1.7546   -1.5703    2.0199 H   0  0  0  0  0  0  0  0  0  0  0  0
  1  2  1  0  0  0  0
  1  3  1  0  0  0  0
  1  4  1  0  0  0  0
  1  5  2  0  0  0  0
  2 16  1  0  0  0  0
  3 17  1  0  0  0  0
  4112  1  0  0  0  0
  6  8  1  0  0  0  0
  6 12  2  0  0  0  0
  6 14  1  0  0  0  0
  7  9  1  0  0  0  0
  7 13  2  0  0  0  0
  7 15  1  0  0  0  0
  8 16  1  0  0  0  0
  8 30  2  0  0  0  0
  9 17  1  0  0  0  0
  9 31  2  0  0  0  0
 10 11  1  0  0  0  0
 10 16  2  0  0  0  0
 10 24  1  0  0  0  0
 11 17  2  0  0  0  0
 11 25  1  0  0  0  0
 12 18  1  0  0  0  0
 12 26  1  0  0  0  0
 13 19  1  0  0  0  0
 13 27  1  0  0  0  0
 14 20  1  0  0  0  0
 14 28  2  0  0  0  0
 15 21  1  0  0  0  0
 15 29  2  0  0  0  0
 18 36  1  0  0  0  0
 18 37  1  0  0  0  0
 18 56  1  0  0  0  0
 19 38  1  0  0  0  0
 19 39  1  0  0  0  0
 19 57  1  0  0  0  0
 20 40  1  0  0  0  0
 20 41  1  0  0  0  0
 20 58  1  0  0  0  0
 21 42  1  0  0  0  0
 21 43  1  0  0  0  0
 21 59  1  0  0  0  0
 22 26  2  0  0  0  0
 22 28  1  0  0  0  0
 22 34  1  0  0  0  0
 23 27  2  0  0  0  0
 23 29  1  0  0  0  0
 23 35  1  0  0  0  0
 24 32  1  0  0  0  0
 24 44  2  0  0  0  0
 25 33  1  0  0  0  0
 25 45  2  0  0  0  0
 26 60  1  0  0  0  0
 27 61  1  0  0  0  0
 28 62  1  0  0  0  0
 29 63  1  0  0  0  0
 30 32  1  0  0  0  0
 30 64  1  0  0  0  0
 31 33  1  0  0  0  0
 31 65  1  0  0  0  0
 32 46  2  0  0  0  0
 33 47  2  0  0  0  0
 34 48  1  0  0  0  0
 34 49  1  0  0  0  0
 34 66  1  0  0  0  0
 35 50  1  0  0  0  0
 35 51  1  0  0  0  0
 35 67  1  0  0  0  0
 36 68  1  0  0  0  0
 36 69  1  0  0  0  0
 36 70  1  0  0  0  0
 37 71  1  0  0  0  0
 37 72  1  0  0  0  0
 37 73  1  0  0  0  0
 38 74  1  0  0  0  0
 38 75  1  0  0  0  0
 38 76  1  0  0  0  0
 39 77  1  0  0  0  0
 39 78  1  0  0  0  0
 39 79  1  0  0  0  0
 40 80  1  0  0  0  0
 40 81  1  0  0  0  0
 40 82  1  0  0  0  0
 41 83  1  0  0  0  0
 41 84  1  0  0  0  0
 41 85  1  0  0  0  0
 42 86  1  0  0  0  0
 42 87  1  0  0  0  0
 42 88  1  0  0  0  0
 43 89  1  0  0  0  0
 43 90  1  0  0  0  0
 43 91  1  0  0  0  0
 44 52  1  0  0  0  0
 44 92  1  0  0  0  0
 45 53  1  0  0  0  0
 45 93  1  0  0  0  0
 46 54  1  0  0  0  0
 46 94  1  0  0  0  0
 47 55  1  0  0  0  0
 47 95  1  0  0  0  0
 48 96  1  0  0  0  0
 48 97  1  0  0  0  0
 48 98  1  0  0  0  0
 49 99  1  0  0  0  0
 49100  1  0  0  0  0
 49101  1  0  0  0  0
 50102  1  0  0  0  0
 50103  1  0  0  0  0
 50104  1  0  0  0  0
 51105  1  0  0  0  0
 51106  1  0  0  0  0
 51107  1  0  0  0  0
 52 54  2  0  0  0  0
 52108  1  0  0  0  0
 53 55  2  0  0  0  0
 53109  1  0  0  0  0
 54110  1  0  0  0  0
 55111  1  0  0  0  0
M  END
>  <MOL Chiral Flag>
0

>  <PUBCHEM_COMPOUND_CID>
11498681

>  <PUBCHEM_COMPOUND_CANONICALIZED>
1

>  <PUBCHEM_CACTVS_COMPLEXITY>
1180

>  <PUBCHEM_CACTVS_HBOND_ACCEPTOR>
4

>  <PUBCHEM_CACTVS_HBOND_DONOR>
1

>  <PUBCHEM_CACTVS_ROTATABLE_BOND>
8

>  <PUBCHEM_CACTVS_SUBSKEYS>
AAADcfB8OAIAAAAAAAAAAAAAAAAAAAAAAAAwYMGDBIAAAADBVAAAGgAACCAADQSAmAAyBsAAARCAQiBCAIACAAAgIAAIiAAECIgIJiKAERKAMAAkwBEIiAfAwPAO4AADAAAYAADAAAYAADAAAAAAAAAAAA==

>  <PUBCHEM_IUPAC_OPENEYE_NAME>
13-hydroxy-10,16-bis(2,4,6-triisopropylphenyl)-12,14-dioxa-13lambda5-phosphapentacyclo[13.8.0.02,11.03,8.018,23]tricosa-1(15),2(11),3,5,7,9,16,18,20,22-decaene 13-oxide

>  <PUBCHEM_IUPAC_CAS_NAME>
13-hydroxy-10,16-bis[2,4,6-tri(propan-2-yl)phenyl]-12,14-dioxa-13lambda5-phosphapentacyclo[13.8.0.02,11.03,8.018,23]tricosa-1(15),2(11),3,5,7,9,16,18,20,22-decaene 13-oxide

>  <PUBCHEM_IUPAC_NAME_MARKUP>
13-hydroxy-10,16-bis[2,4,6-tri(propan-2-yl)phenyl]-12,14-dioxa-13&lambda;<SUP>5</SUP>-phosphapentacyclo[13.8.0.0<SUP>2,11</SUP>.0<SUP>3,8</SUP>.0<SUP>18,23</SUP>]tricosa-1(15),2(11),3,5,7,9,16,18,20,22-decaene 13-oxide

>  <PUBCHEM_IUPAC_NAME>
13-hydroxy-10,16-bis[2,4,6-tri(propan-2-yl)phenyl]-12,14-dioxa-13lambda5-phosphapentacyclo[13.8.0.02,11.03,8.018,23]tricosa-1(15),2(11),3,5,7,9,16,18,20,22-decaene 13-oxide

>  <PUBCHEM_IUPAC_SYSTEMATIC_NAME>
13-oxidanyl-10,16-bis[2,4,6-tri(propan-2-yl)phenyl]-12,14-dioxa-13lambda5-phosphapentacyclo[13.8.0.02,11.03,8.018,23]tricosa-1(15),2(11),3,5,7,9,16,18,20,22-decaene 13-oxide

>  <PUBCHEM_IUPAC_TRADITIONAL_NAME>
13-hydroxy-10,16-bis(2,4,6-triisopropylphenyl)-12,14-dioxa-13lambda5-phosphapentacyclo[13.8.0.02,11.03,8.018,23]tricosa-1(15),2(11),3,5,7,9,16,18,20,22-decaene 13-oxide

>  <PUBCHEM_IUPAC_INCHI>
InChI=1S/C50H57O4P/c1-27(2)35-23-39(29(5)6)45(40(24-35)30(7)8)43-21-33-17-13-15-19-37(33)47-48-38-20-16-14-18-34(38)22-44(50(48)54-55(51,52)53-49(43)47)46-41(31(9)10)25-36(28(3)4)26-42(46)32(11)12/h13-32H,1-12H3,(H,51,52)

>  <PUBCHEM_IUPAC_INCHIKEY>
AGQAQYPGJDBIQR-UHFFFAOYSA-N

>  <PUBCHEM_XLOGP3_AA>
14.8

>  <PUBCHEM_EXACT_MASS>
752.399447

>  <PUBCHEM_MOLECULAR_FORMULA>
C50H57O4P

>  <PUBCHEM_MOLECULAR_WEIGHT>
753

>  <PUBCHEM_OPENEYE_CAN_SMILES>
CC(C)C1=CC(=C(C(=C1)C(C)C)C2=CC3=CC=CC=C3C4=C2OP(=O)(OC5=C4C6=CC=CC=C6C=C5C7=C(C=C(C=C7C(C)C)C(C)C)C(C)C)O)C(C)C

>  <PUBCHEM_OPENEYE_ISO_SMILES>
CC(C)C1=CC(=C(C(=C1)C(C)C)C2=CC3=CC=CC=C3C4=C2OP(=O)(OC5=C4C6=CC=CC=C6C=C5C7=C(C=C(C=C7C(C)C)C(C)C)C(C)C)O)C(C)C

>  <PUBCHEM_CACTVS_TPSA>
55.8

>  <PUBCHEM_MONOISOTOPIC_WEIGHT>
752.399447

>  <PUBCHEM_TOTAL_CHARGE>
0

>  <PUBCHEM_HEAVY_ATOM_COUNT>
55

>  <PUBCHEM_ATOM_DEF_STEREO_COUNT>
0

>  <PUBCHEM_ATOM_UDEF_STEREO_COUNT>
0

>  <PUBCHEM_BOND_DEF_STEREO_COUNT>
0

>  <PUBCHEM_BOND_UDEF_STEREO_COUNT>
0

>  <PUBCHEM_ISOTOPIC_ATOM_COUNT>
0

>  <PUBCHEM_COMPONENT_COUNT>
1

>  <PUBCHEM_CACTVS_TAUTO_COUNT>
-1

>  <PUBCHEM_COORDINATE_TYPE>
1
5
255

>  <PUBCHEM_BONDANNOTATIONS>
10  16  8
10  24  8
11  17  8
11  25  8
12  26  8
13  27  8
14  28  8
15  29  8
22  26  8
22  28  8
23  27  8
23  29  8
24  32  8
24  44  8
25  33  8
25  45  8
30  32  8
31  33  8
32  46  8
33  47  8
44  52  8
45  53  8
46  54  8
47  55  8
52  54  8
53  55  8
6  12  8
6  14  8
7  13  8
7  15  8
8  16  8
8  30  8
9  17  8
9  31  8

$$$$
