
 OpenBabel01272113573D

 60 90  0  0  0  0  0  0  0  0999 V2000
    6.0510   -2.0308   -2.1489 C   0  0  0  0  0  0  0  0  0  0  0  0
    5.2639   -5.2509   -2.2268 C   0  0  0  0  0  0  0  0  0  0  0  0
    4.6588   -5.6967   -0.8945 C   0  0  0  0  0  0  0  0  0  0  0  0
    3.7869   -4.3264   -1.9615 C   0  0  0  0  0  0  0  0  0  0  0  0
    2.8670   -3.8014    1.5481 C   0  0  0  0  0  0  0  0  0  0  0  0
    7.3480   -6.5536    3.0335 C   0  0  0  0  0  0  0  0  0  0  0  0
    4.5566   -6.4968    3.7024 C   0  0  0  0  0  0  0  0  0  0  0  0
    4.5115   -7.5065    2.6717 C   0  0  0  0  0  0  0  0  0  0  0  0
    4.4520   -7.1458    0.3534 C   0  0  0  0  0  0  0  0  0  0  0  0
    7.3730   -7.6225    2.1835 C   0  0  0  0  0  0  0  0  0  0  0  0
    5.3563   -1.6851   -3.1899 C   0  0  0  0  0  0  0  0  0  0  0  0
    6.6060   -4.2767   -2.9071 C   0  0  0  0  0  0  0  0  0  0  0  0
    8.2832   -5.7378    2.3100 C   0  0  0  0  0  0  0  0  0  0  0  0
    5.1433   -3.0985   -2.1423 C   0  0  0  0  0  0  0  0  0  0  0  0
    3.4177   -7.0452    1.9450 C   0  0  0  0  0  0  0  0  0  0  0  0
    7.4813   -2.5504   -1.8723 C   0  0  0  0  0  0  0  0  0  0  0  0
    7.3006   -5.0596    1.5858 C   0  0  0  0  0  0  0  0  0  0  0  0
    5.8512   -6.0396    3.6201 C   0  0  0  0  0  0  0  0  0  0  0  0
    6.5502   -5.7603   -1.6029 C   0  0  0  0  0  0  0  0  0  0  0  0
    5.8732   -7.9288    1.7967 C   0  0  0  0  0  0  0  0  0  0  0  0
    5.1033   -5.1197    0.8491 C   0  0  0  0  0  0  0  0  0  0  0  0
    3.6141   -1.6802   -2.6701 C   0  0  0  0  0  0  0  0  0  0  0  0
    3.2788   -1.7315   -1.2349 C   0  0  0  0  0  0  0  0  0  0  0  0
    6.1184   -4.5295    0.2524 C   0  0  0  0  0  0  0  0  0  0  0  0
    5.6939   -4.1519   -1.0735 C   0  0  0  0  0  0  0  0  0  0  0  0
    1.3334   -4.0114    1.8110 C   0  0  0  0  0  0  0  0  0  0  0  0
    6.8045   -7.1511   -0.5815 C   0  0  0  0  0  0  0  0  0  0  0  0
    1.9410   -2.9562    1.1674 C   0  0  0  0  0  0  0  0  0  0  0  0
    1.7518   -3.0923   -1.5868 C   0  0  0  0  0  0  0  0  0  0  0  0
    1.4723   -4.4276   -0.9504 C   0  0  0  0  0  0  0  0  0  0  0  0
    3.9972   -3.8700   -0.0147 C   0  0  0  0  0  0  0  0  0  0  0  0
    2.2854   -5.4721    2.5697 C   0  0  0  0  0  0  0  0  0  0  0  0
    8.6430   -7.4778    1.2787 C   0  0  0  0  0  0  0  0  0  0  0  0
    8.3175   -6.8376    0.1434 C   0  0  0  0  0  0  0  0  0  0  0  0
    5.9664   -4.8457    1.8684 C   0  0  0  0  0  0  0  0  0  0  0  0
    9.0272   -4.8042   -0.1660 C   0  0  0  0  0  0  0  0  0  0  0  0
    1.3597   -4.8756    0.5246 C   0  0  0  0  0  0  0  0  0  0  0  0
    2.1082   -2.3054   -0.4978 C   0  0  0  0  0  0  0  0  0  0  0  0
    5.3247   -5.0225    2.9526 C   0  0  0  0  0  0  0  0  0  0  0  0
    5.5699   -3.6898   -4.0157 C   0  0  0  0  0  0  0  0  0  0  0  0
    3.4730   -5.2564    3.6660 C   0  0  0  0  0  0  0  0  0  0  0  0
    2.5862   -5.0695   -1.2380 C   0  0  0  0  0  0  0  0  0  0  0  0
    3.7809   -3.7875   -3.4486 C   0  0  0  0  0  0  0  0  0  0  0  0
    3.2791   -5.5417    0.0467 C   0  0  0  0  0  0  0  0  0  0  0  0
    4.2891   -2.5451   -0.8807 C   0  0  0  0  0  0  0  0  0  0  0  0
    7.9768   -2.7137   -3.0923 C   0  0  0  0  0  0  0  0  0  0  0  0
    7.2536   -5.2673    0.1992 C   0  0  0  0  0  0  0  0  0  0  0  0
    9.7817   -5.8229   -0.6344 C   0  0  0  0  0  0  0  0  0  0  0  0
    9.5359   -6.2617    1.2189 C   0  0  0  0  0  0  0  0  0  0  0  0
    9.0643   -4.0170   -2.7309 C   0  0  0  0  0  0  0  0  0  0  0  0
    4.0033   -5.1454    2.4609 C   0  0  0  0  0  0  0  0  0  0  0  0
    8.4286   -5.8364   -1.4449 C   0  0  0  0  0  0  0  0  0  0  0  0
    2.7796   -2.7839   -2.9317 C   0  0  0  0  0  0  0  0  0  0  0  0
    6.4031   -2.5081   -3.9044 C   0  0  0  0  0  0  0  0  0  0  0  0
    5.6848   -7.7595    0.3948 C   0  0  0  0  0  0  0  0  0  0  0  0
    8.1919   -5.0061   -2.9131 C   0  0  0  0  0  0  0  0  0  0  0  0
    2.6665   -5.5219    0.9407 C   0  0  0  0  0  0  0  0  0  0  0  0
    2.0332   -4.6006    3.3090 C   0  0  0  0  0  0  0  0  0  0  0  0
    7.6777   -4.1058   -1.1474 C   0  0  0  0  0  0  0  0  0  0  0  0
    9.8081   -4.6631   -1.2249 C   0  0  0  0  0  0  0  0  0  0  0  0
  1 11  2  0  0  0  0
  1 14  1  0  0  0  0
  1 16  1  0  0  0  0
  2  3  1  0  0  0  0
  2 14  2  0  0  0  0
  2 19  1  0  0  0  0
  3  9  1  0  0  0  0
  3 31  2  0  0  0  0
  4 25  1  0  0  0  0
  4 42  1  0  0  0  0
  4 43  2  0  0  0  0
  5 28  1  0  0  0  0
  5 31  1  0  0  0  0
  5 32  2  0  0  0  0
  6 10  2  0  0  0  0
  6 13  1  0  0  0  0
  6 18  1  0  0  0  0
  7  8  2  0  0  0  0
  7 18  1  0  0  0  0
  7 41  1  0  0  0  0
  8 15  1  0  0  0  0
  8 20  1  0  0  0  0
  9 15  2  0  0  0  0
  9 55  1  0  0  0  0
 10 20  1  0  0  0  0
 10 33  1  0  0  0  0
 11 22  1  0  0  0  0
 11 54  1  0  0  0  0
 12 25  1  0  0  0  0
 12 40  1  0  0  0  0
 12 56  2  0  0  0  0
 13 17  1  0  0  0  0
 13 49  2  0  0  0  0
 14 45  1  0  0  0  0
 15 32  1  0  0  0  0
 16 46  1  0  0  0  0
 16 59  2  0  0  0  0
 17 35  1  0  0  0  0
 17 47  2  0  0  0  0
 18 39  2  0  0  0  0
 19 27  2  0  0  0  0
 19 59  1  0  0  0  0
 20 55  2  0  0  0  0
 21 24  1  0  0  0  0
 21 35  2  0  0  0  0
 21 44  1  0  0  0  0
 22 23  1  0  0  0  0
 22 53  2  0  0  0  0
 23 38  1  0  0  0  0
 23 45  2  0  0  0  0
 24 25  2  0  0  0  0
 24 47  1  0  0  0  0
 26 28  2  0  0  0  0
 26 37  1  0  0  0  0
 26 58  1  0  0  0  0
 27 34  1  0  0  0  0
 27 55  1  0  0  0  0
 28 38  1  0  0  0  0
 29 30  1  0  0  0  0
 29 38  2  0  0  0  0
 29 53  1  0  0  0  0
 30 37  2  0  0  0  0
 30 42  1  0  0  0  0
 31 45  1  0  0  0  0
 32 58  1  0  0  0  0
 33 34  2  0  0  0  0
 33 49  1  0  0  0  0
 34 36  1  0  0  0  0
 35 39  1  0  0  0  0
 36 59  1  0  0  0  0
 36 60  2  0  0  0  0
 37 57  1  0  0  0  0
 39 51  1  0  0  0  0
 40 43  1  0  0  0  0
 40 54  2  0  0  0  0
 41 51  1  0  0  0  0
 41 58  2  0  0  0  0
 42 44  2  0  0  0  0
 43 53  1  0  0  0  0
 44 57  1  0  0  0  0
 46 50  2  0  0  0  0
 46 54  1  0  0  0  0
 47 52  1  0  0  0  0
 48 49  1  0  0  0  0
 48 52  2  0  0  0  0
 48 60  1  0  0  0  0
 50 56  1  0  0  0  0
 50 60  1  0  0  0  0
 51 57  2  0  0  0  0
 52 56  1  0  0  0  0
M  END
>  <MOL Chiral Flag>
0

>  <PUBCHEM_COMPOUND_CID>
123591

>  <PUBCHEM_COMPOUND_CANONICALIZED>
1

>  <PUBCHEM_CACTVS_COMPLEXITY>
2030

>  <PUBCHEM_CACTVS_HBOND_ACCEPTOR>
0

>  <PUBCHEM_CACTVS_HBOND_DONOR>
0

>  <PUBCHEM_CACTVS_ROTATABLE_BOND>
0

>  <PUBCHEM_CACTVS_SUBSKEYS>
AAADcQB8AAAAAAAAAAAAAAAAAAAAAYMECBAwYMGDAAAAAAABVAAACAAAAAAADAAAGAAAAMAAAACAAgBAAAACAAAgAAAAiAAAAIgIICKAEBCAIAAggAAIiAcAgMAOwAACAAAQAACAAAQAACAAAQAACAAAAA==

>  <PUBCHEM_IUPAC_OPENEYE_NAME>
[60]fullerene

>  <PUBCHEM_IUPAC_CAS_NAME>
(C60-Ih)[5,6]fullerene

>  <PUBCHEM_IUPAC_NAME_MARKUP>
(C<SUB>60</SUB>-I<SUB>h</SUB>)[5,6]fullerene

>  <PUBCHEM_IUPAC_NAME>
(C60-Ih)[5,6]fullerene

>  <PUBCHEM_IUPAC_SYSTEMATIC_NAME>
(C60-Ih)[5,6]fullerene

>  <PUBCHEM_IUPAC_TRADITIONAL_NAME>
buckminsterfullerene

>  <PUBCHEM_IUPAC_INCHI>
InChI=1S/C60/c1-2-5-6-3(1)8-12-10-4(1)9-11-7(2)17-21-13(5)23-24-14(6)22-18(8)28-20(12)30-26-16(10)15(9)25-29-19(11)27(17)37-41-31(21)33(23)43-44-34(24)32(22)42-38(28)48-40(30)46-36(26)35(25)45-39(29)47(37)55-49(41)51(43)57-52(44)50(42)56(48)59-54(46)53(45)58(55)60(57)59

>  <PUBCHEM_IUPAC_INCHIKEY>
XMWRBQBLMFGWIX-UHFFFAOYSA-N

>  <PUBCHEM_XLOGP3_AA>
18

>  <PUBCHEM_EXACT_MASS>
720

>  <PUBCHEM_MOLECULAR_FORMULA>
C60

>  <PUBCHEM_MOLECULAR_WEIGHT>
720.6

>  <PUBCHEM_OPENEYE_CAN_SMILES>
C12=C3C4=C5C6=C1C7=C8C9=C1C%10=C%11C(=C29)C3=C2C3=C4C4=C5C5=C9C6=C7C6=C7C8=C1C1=C8C%10=C%10C%11=C2C2=C3C3=C4C4=C5C5=C%11C%12=C(C6=C95)C7=C1C1=C%12C5=C%11C4=C3C3=C5C(=C81)C%10=C23

>  <PUBCHEM_OPENEYE_ISO_SMILES>
C12=C3C4=C5C6=C1C7=C8C9=C1C%10=C%11C(=C29)C3=C2C3=C4C4=C5C5=C9C6=C7C6=C7C8=C1C1=C8C%10=C%10C%11=C2C2=C3C3=C4C4=C5C5=C%11C%12=C(C6=C95)C7=C1C1=C%12C5=C%11C4=C3C3=C5C(=C81)C%10=C23

>  <PUBCHEM_CACTVS_TPSA>
0

>  <PUBCHEM_MONOISOTOPIC_WEIGHT>
720

>  <PUBCHEM_TOTAL_CHARGE>
0

>  <PUBCHEM_HEAVY_ATOM_COUNT>
60

>  <PUBCHEM_ATOM_DEF_STEREO_COUNT>
0

>  <PUBCHEM_ATOM_UDEF_STEREO_COUNT>
0

>  <PUBCHEM_BOND_DEF_STEREO_COUNT>
0

>  <PUBCHEM_BOND_UDEF_STEREO_COUNT>
0

>  <PUBCHEM_ISOTOPIC_ATOM_COUNT>
0

>  <PUBCHEM_COMPONENT_COUNT>
1

>  <PUBCHEM_CACTVS_TAUTO_COUNT>
-1

>  <PUBCHEM_COORDINATE_TYPE>
1
5
255

>  <PUBCHEM_BONDANNOTATIONS>
1  11  8
1  14  8
1  16  8
10  20  8
10  33  8
11  22  8
11  54  8
12  25  8
12  40  8
12  56  8
13  17  8
13  49  8
14  45  8
15  32  8
16  46  8
16  59  8
17  35  8
17  47  8
18  39  8
19  27  8
19  59  8
2  14  8
2  19  8
2  3  8
20  55  8
21  24  8
21  35  8
21  44  8
22  23  8
22  53  8
23  38  8
23  45  8
24  25  8
24  47  8
26  28  8
26  37  8
26  58  8
27  34  8
27  55  8
28  38  8
29  30  8
29  38  8
29  53  8
3  31  8
3  9  8
30  37  8
30  42  8
31  45  8
32  58  8
33  34  8
33  49  8
34  36  8
35  39  8
36  59  8
36  60  8
37  57  8
39  51  8
4  25  8
4  42  8
4  43  8
40  43  8
40  54  8
41  51  8
41  58  8
42  44  8
43  53  8
44  57  8
46  50  8
46  54  8
47  52  8
48  49  8
48  52  8
48  60  8
5  28  8
5  31  8
5  32  8
50  56  8
50  60  8
51  57  8
52  56  8
6  10  8
6  13  8
6  18  8
7  18  8
7  41  8
7  8  8
8  15  8
8  20  8
9  15  8
9  55  8

$$$$
