#Put Keywords Here, check Charge and Multiplicity.

 2519

0  1
O           0.47000         2.56880         0.00060
O          -3.12710        -0.44360        -0.00030
N          -0.96860        -1.31250         0.00000
N           2.21820         0.14120        -0.00030
N          -1.34770         1.07970        -0.00010
N           1.41190        -1.93720         0.00020
C           0.85790         0.25920        -0.00080
C           0.38970        -1.02640        -0.00040
C           0.03070         1.42200        -0.00060
C          -1.90610        -0.24950        -0.00040
C           2.50320        -1.19980         0.00030
C          -1.42760        -2.69600         0.00080
C           3.19260         1.20610         0.00030
C          -2.29690         2.18810         0.00070
H           3.51630        -1.57870         0.00080
H          -1.04510        -3.19730        -0.89370
H          -2.51860        -2.75960         0.00110
H          -1.04470        -3.19630         0.89570
H           4.19920         0.78010         0.00020
H           3.04680         1.80920        -0.89920
H           3.04660         1.80830         0.90040
H          -1.80870         3.16510        -0.00030
H          -2.93220         2.10270         0.88810
H          -2.93460         2.10210        -0.88490

