%nproc=24
%mem=2000mw
%chk=/home/yingjin/Softwares/Fcst_sys/16-2-2_1to25_M062x-631g/sdf_only_valid_atoms_working5_with_H/PE-4.chk
#p BLYP/6-31g pop=full nosym

scaling check | without pre-trained

0  1
C           1.81040         0.09720        -0.18340
C           0.55800         0.43250         0.05910
C          -0.54890        -0.49170        -0.07720
C          -1.77060        -0.10460         0.17660
H           2.58090         0.81600        -0.06680
H           2.02590        -0.89370        -0.49310
H           0.30740         1.45850         0.38300
H          -0.35150        -1.49530        -0.38840
H          -2.64160        -0.73760         0.09640
H          -1.97000         0.91870         0.49380

