142871606
  -OEChem-06152021383D

 44 46  0     0  0  0  0  0  0999 V2000
   -1.4671    0.0152    0.2222 C   0  0  0  0  0  0  0  0  0  0  0  0
    1.4721    0.0153   -0.2188 C   0  0  0  0  0  0  0  0  0  0  0  0
   -2.9017    0.0154   -0.3022 C   0  0  0  0  0  0  0  0  0  0  0  0
    2.8989    0.0155    0.3012 C   0  0  0  0  0  0  0  0  0  0  0  0
    0.7294    1.2778    0.2366 C   0  0  0  0  0  0  0  0  0  0  0  0
   -0.7243    1.2778   -0.2329 C   0  0  0  0  0  0  0  0  0  0  0  0
    0.7295   -1.2473    0.2365 C   0  0  0  0  0  0  0  0  0  0  0  0
   -0.7243   -1.2475   -0.2327 C   0  0  0  0  0  0  0  0  0  0  0  0
   -3.7076   -1.1984    0.1500 C   0  0  0  0  0  0  0  0  0  0  0  0
   -3.7362    1.1763    0.2294 C   0  0  0  0  0  0  0  0  0  0  0  0
    3.7043   -1.1984   -0.1517 C   0  0  0  0  0  0  0  0  0  0  0  0
    3.7330    1.1763   -0.2313 C   0  0  0  0  0  0  0  0  0  0  0  0
   -5.1590   -0.7840   -0.0723 C   0  0  0  0  0  0  0  0  0  0  0  0
   -5.1754    0.7451   -0.0330 C   0  0  0  0  0  0  0  0  0  0  0  0
    5.1559   -0.7841    0.0691 C   0  0  0  0  0  0  0  0  0  0  0  0
    5.1724    0.7450    0.0298 C   0  0  0  0  0  0  0  0  0  0  0  0
   -1.4898    0.0140    1.3213 H   0  0  0  0  0  0  0  0  0  0  0  0
    1.4916    0.0140   -1.3180 H   0  0  0  0  0  0  0  0  0  0  0  0
   -2.8985    0.0505   -1.4009 H   0  0  0  0  0  0  0  0  0  0  0  0
    2.8990    0.0506    1.4000 H   0  0  0  0  0  0  0  0  0  0  0  0
    1.2152    2.1768   -0.1586 H   0  0  0  0  0  0  0  0  0  0  0  0
   -0.7516   -1.3256   -1.3271 H   0  0  0  0  0  0  0  0  0  0  0  0
    0.7554    1.3552    1.3311 H   0  0  0  0  0  0  0  0  0  0  0  0
   -0.7506    1.3551   -1.3274 H   0  0  0  0  0  0  0  0  0  0  0  0
   -1.2075   -2.1470    0.1643 H   0  0  0  0  0  0  0  0  0  0  0  0
    0.7566   -1.3253    1.3310 H   0  0  0  0  0  0  0  0  0  0  0  0
   -1.2110    2.1763    0.1622 H   0  0  0  0  0  0  0  0  0  0  0  0
    1.2119   -2.1474   -0.1604 H   0  0  0  0  0  0  0  0  0  0  0  0
   -3.5426   -1.4064    1.2144 H   0  0  0  0  0  0  0  0  0  0  0  0
   -3.4668   -2.1044   -0.4144 H   0  0  0  0  0  0  0  0  0  0  0  0
   -3.5815    1.3119    1.3069 H   0  0  0  0  0  0  0  0  0  0  0  0
   -3.5117    2.1251   -0.2673 H   0  0  0  0  0  0  0  0  0  0  0  0
    3.4648   -2.1045    0.4133 H   0  0  0  0  0  0  0  0  0  0  0  0
    3.5386   -1.4069   -1.2159 H   0  0  0  0  0  0  0  0  0  0  0  0
    3.5778    1.3122   -1.3087 H   0  0  0  0  0  0  0  0  0  0  0  0
    3.5097    2.1252    0.2658 H   0  0  0  0  0  0  0  0  0  0  0  0
   -5.8167   -1.2177    0.6878 H   0  0  0  0  0  0  0  0  0  0  0  0
   -5.5117   -1.1336   -1.0495 H   0  0  0  0  0  0  0  0  0  0  0  0
   -5.5211    1.1362   -0.9969 H   0  0  0  0  0  0  0  0  0  0  0  0
   -5.8530    1.1261    0.7376 H   0  0  0  0  0  0  0  0  0  0  0  0
    5.8128   -1.2177   -0.6917 H   0  0  0  0  0  0  0  0  0  0  0  0
    5.5097   -1.1337    1.0459 H   0  0  0  0  0  0  0  0  0  0  0  0
    5.5190    1.1361    0.9935 H   0  0  0  0  0  0  0  0  0  0  0  0
    5.8494    1.1260   -0.7414 H   0  0  0  0  0  0  0  0  0  0  0  0
  1  3  1  0  0  0  0
  1  6  1  0  0  0  0
  1  8  1  0  0  0  0
  1 17  1  0  0  0  0
  2  4  1  0  0  0  0
  2  5  1  0  0  0  0
  2  7  1  0  0  0  0
  2 18  1  0  0  0  0
  3  9  1  0  0  0  0
  3 10  1  0  0  0  0
  3 19  1  0  0  0  0
  4 11  1  0  0  0  0
  4 12  1  0  0  0  0
  4 20  1  0  0  0  0
  5  6  1  0  0  0  0
  5 21  1  0  0  0  0
  5 23  1  0  0  0  0
  6 24  1  0  0  0  0
  6 27  1  0  0  0  0
  7  8  1  0  0  0  0
  7 26  1  0  0  0  0
  7 28  1  0  0  0  0
  8 22  1  0  0  0  0
  8 25  1  0  0  0  0
  9 13  1  0  0  0  0
  9 29  1  0  0  0  0
  9 30  1  0  0  0  0
 10 14  1  0  0  0  0
 10 31  1  0  0  0  0
 10 32  1  0  0  0  0
 11 15  1  0  0  0  0
 11 33  1  0  0  0  0
 11 34  1  0  0  0  0
 12 16  1  0  0  0  0
 12 35  1  0  0  0  0
 12 36  1  0  0  0  0
 13 14  1  0  0  0  0
 13 37  1  0  0  0  0
 13 38  1  0  0  0  0
 14 39  1  0  0  0  0
 14 40  1  0  0  0  0
 15 16  1  0  0  0  0
 15 41  1  0  0  0  0
 15 42  1  0  0  0  0
 16 43  1  0  0  0  0
 16 44  1  0  0  0  0
M  END
> <PUBCHEM_COMPOUND_CID>
142871606

> <PUBCHEM_CONFORMER_RMSD>
0.6

> <PUBCHEM_CONFORMER_DIVERSEORDER>
1
29
32
14
30
7
24
31
5
23
8
22
20
9
3
25
4
21
6
12
28
26
10
27
2
18
13
15
11
16
17
19

> <PUBCHEM_MMFF94_PARTIAL_CHARGES>
0

> <PUBCHEM_EFFECTIVE_ROTOR_COUNT>
5.2

> <PUBCHEM_PHARMACOPHORE_FEATURES>
3
5 3 9 10 13 14 rings
5 4 11 12 15 16 rings
6 1 2 5 6 7 8 rings

> <PUBCHEM_HEAVY_ATOM_COUNT>
16

> <PUBCHEM_ATOM_DEF_STEREO_COUNT>
0

> <PUBCHEM_ATOM_UDEF_STEREO_COUNT>
0

> <PUBCHEM_BOND_DEF_STEREO_COUNT>
0

> <PUBCHEM_BOND_UDEF_STEREO_COUNT>
0

> <PUBCHEM_ISOTOPIC_ATOM_COUNT>
0

> <PUBCHEM_COMPONENT_COUNT>
1

> <PUBCHEM_CACTVS_TAUTO_COUNT>
-1

> <PUBCHEM_CONFORMER_ID>
08840C3600000001

> <PUBCHEM_MMFF94_ENERGY>
27.8434

> <PUBCHEM_FEATURE_SELFOVERLAP>
15.224

> <PUBCHEM_SHAPE_FINGERPRINT>
11287383 113 18333733541466018818
11401426 45 18411135840115032813
11471102 20 18410855464892614516
12107183 9 17618222810484774251
12236239 1 18410855460128161793
13167823 11 18410853261110609735
13214271 11 18412261740401794311
13288520 33 18412263939356354447
13533116 47 13470419833826979276
13675066 3 18412262869382002978
13690532 89 18410575093258294760
13862211 1 18410569587105336291
14115302 16 17677060130356207406
14123238 8 18410855473028894510
1420 363 18114188544563634507
15196674 1 18410575084663078919
15242433 33 18411138047781094014
15788980 27 17821450153368131269
17834072 33 18343018925594344116
17834076 25 16225767410772946906
17844677 252 18411989056638004617
18186145 218 17676200290698610278
18522853 276 18341896294458391521
19489759 90 16370721522226632477
200 152 18131349713449263675
20645477 70 18342178822029514302
21267235 1 18410864256221476323
212847 35 18342457045589069440
22485316 2 18410855464423168067
23402539 116 18273490178351568183
23402655 69 18343863307590575446
23536379 177 18410856542459927136
23557571 272 17168141183203581693
23559900 14 18412544332265102592
3004659 81 18335140865548624630
34797466 226 16917074407466395172
351380 180 18409448093977104352
3545911 37 18411139134128257950
366044 4 18410292518780902170
42 15 18408604755583904134
4214541 1 18410856542818928325
42788 4 18410573985151457639
4463277 17 18410575084663338752
474229 33 18411136943821790935
4990 188 18202289086850109550
5104073 3 18410575088979159168
522135 26 18407760327028828194
5374978 207 18410567388825606784
537710 114 18411704305007266596
542803 24 18410575088958072205
59755656 215 18342183215923613118
69090 78 18341891900807210958
7495541 125 17274818120591883475
77779 3 18410856559639789575

> <PUBCHEM_SHAPE_MULTIPOLES>
329.27
12.2
1.51
0.66
0.05
0
0
0.1
-0.01
0
0
0
0
-0.06

> <PUBCHEM_SHAPE_SELFOVERLAP>
675.27

> <PUBCHEM_SHAPE_VOLUME>
183

> <PUBCHEM_COORDINATE_TYPE>
2
5
10

$$$$
