102575333
  -OEChem-06152021313D

 32 34  0     0  0  0  0  0  0999 V2000
   -1.0622   -0.0377   -0.6121 C   0  0  0  0  0  0  0  0  0  0  0  0
    1.0621    0.0378   -0.6122 C   0  0  0  0  0  0  0  0  0  0  0  0
    0.0380   -1.0681   -0.2672 C   0  0  0  0  0  0  0  0  0  0  0  0
   -0.0380    1.0682   -0.2672 C   0  0  0  0  0  0  0  0  0  0  0  0
   -2.2260   -0.0792    0.3864 C   0  0  0  0  0  0  0  0  0  0  0  0
    2.2260    0.0791    0.3863 C   0  0  0  0  0  0  0  0  0  0  0  0
   -3.2265    1.0767    0.1627 C   0  0  0  0  0  0  0  0  0  0  0  0
   -3.3482   -1.0394   -0.0667 C   0  0  0  0  0  0  0  0  0  0  0  0
    3.2264   -1.0767    0.1626 C   0  0  0  0  0  0  0  0  0  0  0  0
    3.3482    1.0393   -0.0666 C   0  0  0  0  0  0  0  0  0  0  0  0
    4.3487   -0.0419    0.3970 C   0  0  0  0  0  0  0  0  0  0  0  0
   -4.3486    0.0418    0.3969 C   0  0  0  0  0  0  0  0  0  0  0  0
    1.3474    0.0384   -1.6721 H   0  0  0  0  0  0  0  0  0  0  0  0
   -1.3475   -0.0383   -1.6721 H   0  0  0  0  0  0  0  0  0  0  0  0
    0.0686   -1.9514   -0.9115 H   0  0  0  0  0  0  0  0  0  0  0  0
   -0.0686    1.9515   -0.9114 H   0  0  0  0  0  0  0  0  0  0  0  0
    0.0522   -1.3981    0.7787 H   0  0  0  0  0  0  0  0  0  0  0  0
   -0.0521    1.3981    0.7787 H   0  0  0  0  0  0  0  0  0  0  0  0
    1.9424    0.1997    1.4398 H   0  0  0  0  0  0  0  0  0  0  0  0
   -1.9424   -0.1998    1.4399 H   0  0  0  0  0  0  0  0  0  0  0  0
   -3.4018   -1.9907    0.4693 H   0  0  0  0  0  0  0  0  0  0  0  0
   -3.3911   -1.2369   -1.1443 H   0  0  0  0  0  0  0  0  0  0  0  0
   -3.2310    1.5012   -0.8483 H   0  0  0  0  0  0  0  0  0  0  0  0
   -3.1792    1.8923    0.8890 H   0  0  0  0  0  0  0  0  0  0  0  0
    3.4019    1.9906    0.4693 H   0  0  0  0  0  0  0  0  0  0  0  0
    3.3911    1.2369   -1.1442 H   0  0  0  0  0  0  0  0  0  0  0  0
    3.2309   -1.5011   -0.8484 H   0  0  0  0  0  0  0  0  0  0  0  0
    3.1791   -1.8923    0.8889 H   0  0  0  0  0  0  0  0  0  0  0  0
   -5.2422    0.1602   -0.2207 H   0  0  0  0  0  0  0  0  0  0  0  0
    5.2423   -0.1603   -0.2207 H   0  0  0  0  0  0  0  0  0  0  0  0
   -4.6481   -0.0548    1.4469 H   0  0  0  0  0  0  0  0  0  0  0  0
    4.6481    0.0546    1.4470 H   0  0  0  0  0  0  0  0  0  0  0  0
  1  3  1  0  0  0  0
  1  4  1  0  0  0  0
  1  5  1  0  0  0  0
  1 14  1  0  0  0  0
  2  3  1  0  0  0  0
  2  4  1  0  0  0  0
  2  6  1  0  0  0  0
  2 13  1  0  0  0  0
  3 15  1  0  0  0  0
  3 17  1  0  0  0  0
  4 16  1  0  0  0  0
  4 18  1  0  0  0  0
  5  7  1  0  0  0  0
  5  8  1  0  0  0  0
  5 20  1  0  0  0  0
  6  9  1  0  0  0  0
  6 10  1  0  0  0  0
  6 19  1  0  0  0  0
  7 12  1  0  0  0  0
  7 23  1  0  0  0  0
  7 24  1  0  0  0  0
  8 12  1  0  0  0  0
  8 21  1  0  0  0  0
  8 22  1  0  0  0  0
  9 11  1  0  0  0  0
  9 27  1  0  0  0  0
  9 28  1  0  0  0  0
 10 11  1  0  0  0  0
 10 25  1  0  0  0  0
 10 26  1  0  0  0  0
 11 30  1  0  0  0  0
 11 32  1  0  0  0  0
 12 29  1  0  0  0  0
 12 31  1  0  0  0  0
M  END
> <PUBCHEM_COMPOUND_CID>
102575333

> <PUBCHEM_CONFORMER_RMSD>
0.6

> <PUBCHEM_CONFORMER_DIVERSEORDER>
1
3
2
4

> <PUBCHEM_MMFF94_PARTIAL_CHARGES>
0

> <PUBCHEM_EFFECTIVE_ROTOR_COUNT>
4.4

> <PUBCHEM_PHARMACOPHORE_FEATURES>
3
4 1 2 3 4 rings
4 5 7 8 12 rings
4 6 9 10 11 rings

> <PUBCHEM_HEAVY_ATOM_COUNT>
12

> <PUBCHEM_ATOM_DEF_STEREO_COUNT>
0

> <PUBCHEM_ATOM_UDEF_STEREO_COUNT>
0

> <PUBCHEM_BOND_DEF_STEREO_COUNT>
0

> <PUBCHEM_BOND_UDEF_STEREO_COUNT>
0

> <PUBCHEM_ISOTOPIC_ATOM_COUNT>
0

> <PUBCHEM_COMPONENT_COUNT>
1

> <PUBCHEM_CACTVS_TAUTO_COUNT>
1

> <PUBCHEM_CONFORMER_ID>
061D2CE500000001

> <PUBCHEM_MMFF94_ENERGY>
37.2016

> <PUBCHEM_FEATURE_SELFOVERLAP>
15.224

> <PUBCHEM_SHAPE_FINGERPRINT>
10219947 1 18408325488172897892
11062470 55 18334014995010149393
11132069 177 18411415115846948331
11401426 45 18335415768882331749
12032990 46 18335143068138886294
12119455 92 17274818026028555109
12251169 10 18410856581114626142
124424 183 18113334211291585109
12932764 1 17060046051909340782
13675066 3 18410575084663078938
14144814 61 18410856559639789610
14252887 29 18113905935620612202
14325111 11 18411982459551906990
14445660 50 18412831295508404033
14943859 89 15985100825486505390
17834072 33 18262520415144385095
18186145 218 18409165498129831286
190213 19 17821728342499629637
19422 9 18334859428519640442
200 152 18272077323838799103
20281407 28 15791729706719119569
20528008 55 18409444808305939507
20645477 70 18337384933619869686
20711985 327 17458069269733166837
20871999 31 10159692448915637833
21501925 9 18333450971304322197
22485316 2 18040429992793854467
23402539 116 16702014267075024541
23463225 33 18408604747131132638
265663 24 17774999089982598311
4047638 21 12247677180097324454
42 15 18333733506969214811
449060 50 18271524281995251000
77779 3 18410857659325484232

> <PUBCHEM_SHAPE_MULTIPOLES>
246.95
8.39
1.18
0.75
0
0
-0.02
0
1.61
0
-0.03
0
0
-0.14

> <PUBCHEM_SHAPE_SELFOVERLAP>
508.241

> <PUBCHEM_SHAPE_VOLUME>
147.7

> <PUBCHEM_COORDINATE_TYPE>
2
5
10

$$$$
