60081627
  -OEChem-06152021463D

 98103  0     0  0  0  0  0  0999 V2000
    0.7225    0.0656   -0.2475 C   0  0  0  0  0  0  0  0  0  0  0  0
   -0.7225    0.0655    0.2475 C   0  0  0  0  0  0  0  0  0  0  0  0
    3.6525    0.0450    0.2506 C   0  0  0  0  0  0  0  0  0  0  0  0
   -3.6525    0.0451   -0.2506 C   0  0  0  0  0  0  0  0  0  0  0  0
    5.0971    0.0447   -0.2458 C   0  0  0  0  0  0  0  0  0  0  0  0
   -5.0971    0.0447    0.2457 C   0  0  0  0  0  0  0  0  0  0  0  0
   -1.4502   -1.2066   -0.2052 C   0  0  0  0  0  0  0  0  0  0  0  0
    1.4503   -1.2067    0.2052 C   0  0  0  0  0  0  0  0  0  0  0  0
   -1.4619    1.3183   -0.2393 C   0  0  0  0  0  0  0  0  0  0  0  0
    1.4620    1.3182    0.2392 C   0  0  0  0  0  0  0  0  0  0  0  0
   -2.9247    1.3174    0.2015 C   0  0  0  0  0  0  0  0  0  0  0  0
   -2.9128   -1.2076    0.2359 C   0  0  0  0  0  0  0  0  0  0  0  0
    2.9128   -1.2076   -0.2359 C   0  0  0  0  0  0  0  0  0  0  0  0
    2.9246    1.3174   -0.2015 C   0  0  0  0  0  0  0  0  0  0  0  0
   -8.0271   -0.0170   -0.2484 C   0  0  0  0  0  0  0  0  0  0  0  0
    8.0272   -0.0170    0.2484 C   0  0  0  0  0  0  0  0  0  0  0  0
   -5.8488    1.2768   -0.2739 C   0  0  0  0  0  0  0  0  0  0  0  0
   -5.8130   -1.2460   -0.1715 C   0  0  0  0  0  0  0  0  0  0  0  0
    5.8130   -1.2460    0.1716 C   0  0  0  0  0  0  0  0  0  0  0  0
    5.8487    1.2767    0.2739 C   0  0  0  0  0  0  0  0  0  0  0  0
    7.2751   -1.2489   -0.2710 C   0  0  0  0  0  0  0  0  0  0  0  0
    7.3110    1.2740   -0.1683 C   0  0  0  0  0  0  0  0  0  0  0  0
   -7.3110    1.2740    0.1684 C   0  0  0  0  0  0  0  0  0  0  0  0
   -7.2751   -1.2489    0.2710 C   0  0  0  0  0  0  0  0  0  0  0  0
   -9.4712   -0.0175    0.2493 C   0  0  0  0  0  0  0  0  0  0  0  0
    9.4712   -0.0176   -0.2493 C   0  0  0  0  0  0  0  0  0  0  0  0
   10.2352    1.1934    0.3030 C   0  0  0  0  0  0  0  0  0  0  0  0
  -10.2353    1.1934   -0.3030 C   0  0  0  0  0  0  0  0  0  0  0  0
  -10.1749   -1.3274   -0.1308 C   0  0  0  0  0  0  0  0  0  0  0  0
   10.1749   -1.3273    0.1307 C   0  0  0  0  0  0  0  0  0  0  0  0
   11.6371   -1.3301   -0.3096 C   0  0  0  0  0  0  0  0  0  0  0  0
   11.6972    1.1865   -0.1378 C   0  0  0  0  0  0  0  0  0  0  0  0
  -11.6371   -1.3301    0.3096 C   0  0  0  0  0  0  0  0  0  0  0  0
  -11.6972    1.1864    0.1378 C   0  0  0  0  0  0  0  0  0  0  0  0
   12.3909   -0.1204    0.2339 C   0  0  0  0  0  0  0  0  0  0  0  0
  -12.3909   -0.1204   -0.2340 C   0  0  0  0  0  0  0  0  0  0  0  0
   -0.7219    0.0792    1.3469 H   0  0  0  0  0  0  0  0  0  0  0  0
    0.7219    0.0792   -1.3469 H   0  0  0  0  0  0  0  0  0  0  0  0
    3.6539    0.0289    1.3500 H   0  0  0  0  0  0  0  0  0  0  0  0
   -3.6539    0.0290   -1.3499 H   0  0  0  0  0  0  0  0  0  0  0  0
   -5.0957    0.0882    1.3444 H   0  0  0  0  0  0  0  0  0  0  0  0
    5.0957    0.0882   -1.3444 H   0  0  0  0  0  0  0  0  0  0  0  0
    1.3969   -1.3068    1.2967 H   0  0  0  0  0  0  0  0  0  0  0  0
    0.9975   -2.1032   -0.2289 H   0  0  0  0  0  0  0  0  0  0  0  0
    1.0138    2.2302   -0.1662 H   0  0  0  0  0  0  0  0  0  0  0  0
    1.4106    1.3876    1.3332 H   0  0  0  0  0  0  0  0  0  0  0  0
   -1.3970   -1.3067   -1.2967 H   0  0  0  0  0  0  0  0  0  0  0  0
   -0.9975   -2.1032    0.2288 H   0  0  0  0  0  0  0  0  0  0  0  0
   -1.0138    2.2303    0.1662 H   0  0  0  0  0  0  0  0  0  0  0  0
   -1.4105    1.3876   -1.3332 H   0  0  0  0  0  0  0  0  0  0  0  0
    2.9768    1.4162   -1.2932 H   0  0  0  0  0  0  0  0  0  0  0  0
    3.3813    2.2138    0.2286 H   0  0  0  0  0  0  0  0  0  0  0  0
   -2.9768    1.4162    1.2932 H   0  0  0  0  0  0  0  0  0  0  0  0
   -3.3814    2.2138   -0.2286 H   0  0  0  0  0  0  0  0  0  0  0  0
   -3.3570   -2.1197   -0.1739 H   0  0  0  0  0  0  0  0  0  0  0  0
   -2.9652   -1.2789    1.3297 H   0  0  0  0  0  0  0  0  0  0  0  0
    3.3570   -2.1197    0.1739 H   0  0  0  0  0  0  0  0  0  0  0  0
    2.9652   -1.2790   -1.3296 H   0  0  0  0  0  0  0  0  0  0  0  0
    8.0294   -0.0629    1.3469 H   0  0  0  0  0  0  0  0  0  0  0  0
   -8.0293   -0.0628   -1.3469 H   0  0  0  0  0  0  0  0  0  0  0  0
   -5.7597   -1.3752   -1.2599 H   0  0  0  0  0  0  0  0  0  0  0  0
   -5.3515   -2.1262    0.2862 H   0  0  0  0  0  0  0  0  0  0  0  0
   -5.4089    2.2036    0.1062 H   0  0  0  0  0  0  0  0  0  0  0  0
   -5.7989    1.3170   -1.3694 H   0  0  0  0  0  0  0  0  0  0  0  0
    5.7597   -1.3751    1.2600 H   0  0  0  0  0  0  0  0  0  0  0  0
    5.4089    2.2036   -0.1061 H   0  0  0  0  0  0  0  0  0  0  0  0
    5.7989    1.3169    1.3694 H   0  0  0  0  0  0  0  0  0  0  0  0
    5.3515   -2.1262   -0.2861 H   0  0  0  0  0  0  0  0  0  0  0  0
    7.3259   -1.2911   -1.3664 H   0  0  0  0  0  0  0  0  0  0  0  0
    7.7111   -2.1759    0.1134 H   0  0  0  0  0  0  0  0  0  0  0  0
    7.7767    2.1540    0.2853 H   0  0  0  0  0  0  0  0  0  0  0  0
    7.3631    1.4018   -1.2570 H   0  0  0  0  0  0  0  0  0  0  0  0
   -7.3259   -1.2911    1.3664 H   0  0  0  0  0  0  0  0  0  0  0  0
   -7.7111   -2.1759   -0.1134 H   0  0  0  0  0  0  0  0  0  0  0  0
   -7.7768    2.1540   -0.2852 H   0  0  0  0  0  0  0  0  0  0  0  0
   -7.3631    1.4018    1.2570 H   0  0  0  0  0  0  0  0  0  0  0  0
    9.4691    0.0563   -1.3464 H   0  0  0  0  0  0  0  0  0  0  0  0
   -9.4691    0.0563    1.3463 H   0  0  0  0  0  0  0  0  0  0  0  0
    9.7066   -2.1899   -0.3525 H   0  0  0  0  0  0  0  0  0  0  0  0
   10.1201   -1.4871    1.2149 H   0  0  0  0  0  0  0  0  0  0  0  0
   10.1858    1.2047    1.3991 H   0  0  0  0  0  0  0  0  0  0  0  0
    9.8058    2.1347   -0.0524 H   0  0  0  0  0  0  0  0  0  0  0  0
  -10.1858    1.2047   -1.3991 H   0  0  0  0  0  0  0  0  0  0  0  0
   -9.8059    2.1348    0.0524 H   0  0  0  0  0  0  0  0  0  0  0  0
   -9.7065   -2.1900    0.3524 H   0  0  0  0  0  0  0  0  0  0  0  0
  -10.1201   -1.4872   -1.2150 H   0  0  0  0  0  0  0  0  0  0  0  0
  -12.1236   -2.2508   -0.0322 H   0  0  0  0  0  0  0  0  0  0  0  0
  -11.6888   -1.3295    1.4054 H   0  0  0  0  0  0  0  0  0  0  0  0
  -11.7522    1.3322    1.2238 H   0  0  0  0  0  0  0  0  0  0  0  0
  -12.2259    2.0278   -0.3243 H   0  0  0  0  0  0  0  0  0  0  0  0
   12.1236   -2.2507    0.0322 H   0  0  0  0  0  0  0  0  0  0  0  0
   11.6888   -1.3295   -1.4055 H   0  0  0  0  0  0  0  0  0  0  0  0
   11.7522    1.3324   -1.2237 H   0  0  0  0  0  0  0  0  0  0  0  0
   12.2258    2.0279    0.3244 H   0  0  0  0  0  0  0  0  0  0  0  0
   13.4152   -0.1183   -0.1555 H   0  0  0  0  0  0  0  0  0  0  0  0
   12.4639   -0.1967    1.3258 H   0  0  0  0  0  0  0  0  0  0  0  0
  -13.4152   -0.1183    0.1554 H   0  0  0  0  0  0  0  0  0  0  0  0
  -12.4639   -0.1967   -1.3259 H   0  0  0  0  0  0  0  0  0  0  0  0
  1  2  1  0  0  0  0
  1  8  1  0  0  0  0
  1 10  1  0  0  0  0
  1 38  1  0  0  0  0
  2  7  1  0  0  0  0
  2  9  1  0  0  0  0
  2 37  1  0  0  0  0
  3  5  1  0  0  0  0
  3 13  1  0  0  0  0
  3 14  1  0  0  0  0
  3 39  1  0  0  0  0
  4  6  1  0  0  0  0
  4 11  1  0  0  0  0
  4 12  1  0  0  0  0
  4 40  1  0  0  0  0
  5 19  1  0  0  0  0
  5 20  1  0  0  0  0
  5 42  1  0  0  0  0
  6 17  1  0  0  0  0
  6 18  1  0  0  0  0
  6 41  1  0  0  0  0
  7 12  1  0  0  0  0
  7 47  1  0  0  0  0
  7 48  1  0  0  0  0
  8 13  1  0  0  0  0
  8 43  1  0  0  0  0
  8 44  1  0  0  0  0
  9 11  1  0  0  0  0
  9 49  1  0  0  0  0
  9 50  1  0  0  0  0
 10 14  1  0  0  0  0
 10 45  1  0  0  0  0
 10 46  1  0  0  0  0
 11 53  1  0  0  0  0
 11 54  1  0  0  0  0
 12 55  1  0  0  0  0
 12 56  1  0  0  0  0
 13 57  1  0  0  0  0
 13 58  1  0  0  0  0
 14 51  1  0  0  0  0
 14 52  1  0  0  0  0
 15 23  1  0  0  0  0
 15 24  1  0  0  0  0
 15 25  1  0  0  0  0
 15 60  1  0  0  0  0
 16 21  1  0  0  0  0
 16 22  1  0  0  0  0
 16 26  1  0  0  0  0
 16 59  1  0  0  0  0
 17 23  1  0  0  0  0
 17 63  1  0  0  0  0
 17 64  1  0  0  0  0
 18 24  1  0  0  0  0
 18 61  1  0  0  0  0
 18 62  1  0  0  0  0
 19 21  1  0  0  0  0
 19 65  1  0  0  0  0
 19 68  1  0  0  0  0
 20 22  1  0  0  0  0
 20 66  1  0  0  0  0
 20 67  1  0  0  0  0
 21 69  1  0  0  0  0
 21 70  1  0  0  0  0
 22 71  1  0  0  0  0
 22 72  1  0  0  0  0
 23 75  1  0  0  0  0
 23 76  1  0  0  0  0
 24 73  1  0  0  0  0
 24 74  1  0  0  0  0
 25 28  1  0  0  0  0
 25 29  1  0  0  0  0
 25 78  1  0  0  0  0
 26 27  1  0  0  0  0
 26 30  1  0  0  0  0
 26 77  1  0  0  0  0
 27 32  1  0  0  0  0
 27 81  1  0  0  0  0
 27 82  1  0  0  0  0
 28 34  1  0  0  0  0
 28 83  1  0  0  0  0
 28 84  1  0  0  0  0
 29 33  1  0  0  0  0
 29 85  1  0  0  0  0
 29 86  1  0  0  0  0
 30 31  1  0  0  0  0
 30 79  1  0  0  0  0
 30 80  1  0  0  0  0
 31 35  1  0  0  0  0
 31 91  1  0  0  0  0
 31 92  1  0  0  0  0
 32 35  1  0  0  0  0
 32 93  1  0  0  0  0
 32 94  1  0  0  0  0
 33 36  1  0  0  0  0
 33 87  1  0  0  0  0
 33 88  1  0  0  0  0
 34 36  1  0  0  0  0
 34 89  1  0  0  0  0
 34 90  1  0  0  0  0
 35 95  1  0  0  0  0
 35 96  1  0  0  0  0
 36 97  1  0  0  0  0
 36 98  1  0  0  0  0
M  END
> <PUBCHEM_COMPOUND_CID>
60081627

> <PUBCHEM_CONFORMER_RMSD>
1.2

> <PUBCHEM_CONFORMER_DIVERSEORDER>
1
30
6
28
22
29
16
33
11
2
4
40
15
37
34
35
31
9
38
14
39
20
17
19
3
27
5
26
8
12
10
36
25
18
21
7
23
32
24
13

> <PUBCHEM_MMFF94_PARTIAL_CHARGES>
0

> <PUBCHEM_EFFECTIVE_ROTOR_COUNT>
12.2

> <PUBCHEM_PHARMACOPHORE_FEATURES>
6
6 1 3 8 10 13 14 rings
6 2 4 7 9 11 12 rings
6 25 28 29 33 34 36 rings
6 26 27 30 31 32 35 rings
6 5 16 19 20 21 22 rings
6 6 15 17 18 23 24 rings

> <PUBCHEM_HEAVY_ATOM_COUNT>
36

> <PUBCHEM_ATOM_DEF_STEREO_COUNT>
0

> <PUBCHEM_ATOM_UDEF_STEREO_COUNT>
0

> <PUBCHEM_BOND_DEF_STEREO_COUNT>
0

> <PUBCHEM_BOND_UDEF_STEREO_COUNT>
0

> <PUBCHEM_ISOTOPIC_ATOM_COUNT>
0

> <PUBCHEM_COMPONENT_COUNT>
1

> <PUBCHEM_CACTVS_TAUTO_COUNT>
1

> <PUBCHEM_CONFORMER_ID>
0394C5DB00000001

> <PUBCHEM_MMFF94_ENERGY>
67.221

> <PUBCHEM_FEATURE_SELFOVERLAP>
30.452

> <PUBCHEM_SHAPE_FINGERPRINT>
10580692 12 18413108337994475697
10883706 142 18113900463531466647
12013929 2 18410573985151457946
12013929 94 18411139148094912987
12498461 61 17632292420322923895
12522641 33 17561366171081547086
12664476 115 18409727365504093645
12741549 16 16702302351626960704
14251764 46 18410575088958065698
14251920 1 18410855455833194506
14251920 17 18412262861805295000
14344974 52 18412261765617619034
15061470 23 18408602544441053485
15219723 13 17531238424069851770
15274700 256 18342457037099823001
15510794 2 18410577283686724226
15840311 113 18041000687581405876
15890870 6 18341894090866407711
16067689 302 18272371920062710990
16087824 20 18411982460232350060
16728433 110 18342737438440146096
21043394 1 18410573989446418432
21362267 2 17774424071351463601
21792934 111 18201996656345912984
232437 2 18410855460128168291
23378982 100 16443924898113568602
23528940 14 16056590016540140127
23581129 1 18409448085244608516
24893992 56 18408602579048296312
3092352 35 18408322193965104539
335352 9 18409730672617849055
33684 2 18410856559639789571
5381727 24 18412262848551024111
59521270 166 18113614566152016511
67123 10 18410573985151451149
9663363 56 18410855464423155080

> <PUBCHEM_SHAPE_MULTIPOLES>
740.86
57.49
1.68
0.67
0
0
0
-2.48
0
0
0
0
0
0.35

> <PUBCHEM_SHAPE_SELFOVERLAP>
1530.988

> <PUBCHEM_SHAPE_VOLUME>
406.2

> <PUBCHEM_COORDINATE_TYPE>
2
5
10

$$$$
