85851209
  -OEChem-06152021283D

 54 57  0     1  0  0  0  0  0999 V2000
   -0.6872   -1.1222    0.3244 C   0  0  1  0  0  0  0  0  0  0  0  0
    0.6872   -1.1222   -0.3244 C   0  0  1  0  0  0  0  0  0  0  0  0
    2.9528   -0.4482    0.3431 C   0  0  1  0  0  0  0  0  0  0  0  0
   -2.9528   -0.4482   -0.3431 C   0  0  1  0  0  0  0  0  0  0  0  0
    1.5426    0.0943    0.0633 C   0  0  0  0  0  0  0  0  0  0  0  0
   -1.5426    0.0943   -0.0633 C   0  0  0  0  0  0  0  0  0  0  0  0
   -1.5287   -2.3377   -0.0606 C   0  0  0  0  0  0  0  0  0  0  0  0
    1.5287   -2.3378    0.0606 C   0  0  0  0  0  0  0  0  0  0  0  0
   -2.9481   -1.8696    0.2166 C   0  0  0  0  0  0  0  0  0  0  0  0
    2.9481   -1.8695   -0.2166 C   0  0  0  0  0  0  0  0  0  0  0  0
    4.0566    0.4169   -0.2425 C   0  0  0  0  0  0  0  0  0  0  0  0
   -4.0566    0.4168    0.2425 C   0  0  0  0  0  0  0  0  0  0  0  0
   -4.0595    1.8406   -0.3052 C   0  0  0  0  0  0  0  0  0  0  0  0
    4.0595    1.8406    0.3052 C   0  0  0  0  0  0  0  0  0  0  0  0
    5.4568   -0.0718    0.1143 C   0  0  0  0  0  0  0  0  0  0  0  0
   -5.4569   -0.0718   -0.1143 C   0  0  0  0  0  0  0  0  0  0  0  0
    6.3492    1.1330   -0.1657 C   0  0  0  0  0  0  0  0  0  0  0  0
    5.4522    2.3648   -0.0309 C   0  0  0  0  0  0  0  0  0  0  0  0
   -5.4523    2.3648    0.0310 C   0  0  0  0  0  0  0  0  0  0  0  0
   -6.3491    1.1330    0.1657 C   0  0  0  0  0  0  0  0  0  0  0  0
   -0.5732   -1.1193    1.4180 H   0  0  0  0  0  0  0  0  0  0  0  0
    0.5732   -1.1193   -1.4180 H   0  0  0  0  0  0  0  0  0  0  0  0
   -3.0767   -0.5116   -1.4337 H   0  0  0  0  0  0  0  0  0  0  0  0
    3.0766   -0.5116    1.4337 H   0  0  0  0  0  0  0  0  0  0  0  0
    1.1608    0.6063    0.9542 H   0  0  0  0  0  0  0  0  0  0  0  0
   -1.5324    0.8221    0.7564 H   0  0  0  0  0  0  0  0  0  0  0  0
   -1.1608    0.6063   -0.9542 H   0  0  0  0  0  0  0  0  0  0  0  0
    1.5325    0.8221   -0.7564 H   0  0  0  0  0  0  0  0  0  0  0  0
    1.2720   -3.2257   -0.5252 H   0  0  0  0  0  0  0  0  0  0  0  0
    1.4128   -2.5824    1.1235 H   0  0  0  0  0  0  0  0  0  0  0  0
   -1.2720   -3.2257    0.5252 H   0  0  0  0  0  0  0  0  0  0  0  0
   -1.4128   -2.5824   -1.1235 H   0  0  0  0  0  0  0  0  0  0  0  0
    3.6904   -2.5109    0.2684 H   0  0  0  0  0  0  0  0  0  0  0  0
    3.1436   -1.8737   -1.2958 H   0  0  0  0  0  0  0  0  0  0  0  0
   -3.6903   -2.5109   -0.2684 H   0  0  0  0  0  0  0  0  0  0  0  0
   -3.1436   -1.8737    1.2958 H   0  0  0  0  0  0  0  0  0  0  0  0
    3.9601    0.4579   -1.3366 H   0  0  0  0  0  0  0  0  0  0  0  0
   -3.9601    0.4579    1.3367 H   0  0  0  0  0  0  0  0  0  0  0  0
   -5.7607   -0.9448    0.4715 H   0  0  0  0  0  0  0  0  0  0  0  0
    3.2775    2.4668   -0.1350 H   0  0  0  0  0  0  0  0  0  0  0  0
    3.9182    1.8418    1.3932 H   0  0  0  0  0  0  0  0  0  0  0  0
    5.5207   -0.3395    1.1762 H   0  0  0  0  0  0  0  0  0  0  0  0
   -5.5207   -0.3395   -1.1762 H   0  0  0  0  0  0  0  0  0  0  0  0
   -3.2775    2.4668    0.1350 H   0  0  0  0  0  0  0  0  0  0  0  0
   -3.9182    1.8418   -1.3932 H   0  0  0  0  0  0  0  0  0  0  0  0
    5.7606   -0.9448   -0.4715 H   0  0  0  0  0  0  0  0  0  0  0  0
   -5.8158    3.0505   -0.7411 H   0  0  0  0  0  0  0  0  0  0  0  0
   -5.4351    2.9164    0.9781 H   0  0  0  0  0  0  0  0  0  0  0  0
    5.8157    3.0504    0.7412 H   0  0  0  0  0  0  0  0  0  0  0  0
    5.4351    2.9165   -0.9780 H   0  0  0  0  0  0  0  0  0  0  0  0
    6.7538    1.0793   -1.1831 H   0  0  0  0  0  0  0  0  0  0  0  0
    7.1987    1.1694    0.5237 H   0  0  0  0  0  0  0  0  0  0  0  0
   -6.7538    1.0793    1.1830 H   0  0  0  0  0  0  0  0  0  0  0  0
   -7.1986    1.1694   -0.5237 H   0  0  0  0  0  0  0  0  0  0  0  0
  1  2  1  0  0  0  0
  1  6  1  0  0  0  0
  1  7  1  0  0  0  0
  1 21  1  0  0  0  0
  2  5  1  0  0  0  0
  2  8  1  0  0  0  0
  2 22  1  0  0  0  0
  3  5  1  0  0  0  0
  3 10  1  0  0  0  0
  3 11  1  0  0  0  0
  3 24  1  0  0  0  0
  4  6  1  0  0  0  0
  4  9  1  0  0  0  0
  4 12  1  0  0  0  0
  4 23  1  0  0  0  0
  5 25  1  0  0  0  0
  5 28  1  0  0  0  0
  6 26  1  0  0  0  0
  6 27  1  0  0  0  0
  7  9  1  0  0  0  0
  7 31  1  0  0  0  0
  7 32  1  0  0  0  0
  8 10  1  0  0  0  0
  8 29  1  0  0  0  0
  8 30  1  0  0  0  0
  9 35  1  0  0  0  0
  9 36  1  0  0  0  0
 10 33  1  0  0  0  0
 10 34  1  0  0  0  0
 11 14  1  0  0  0  0
 11 15  1  0  0  0  0
 11 37  1  0  0  0  0
 12 13  1  0  0  0  0
 12 16  1  0  0  0  0
 12 38  1  0  0  0  0
 13 19  1  0  0  0  0
 13 44  1  0  0  0  0
 13 45  1  0  0  0  0
 14 18  1  0  0  0  0
 14 40  1  0  0  0  0
 14 41  1  0  0  0  0
 15 17  1  0  0  0  0
 15 42  1  0  0  0  0
 15 46  1  0  0  0  0
 16 20  1  0  0  0  0
 16 39  1  0  0  0  0
 16 43  1  0  0  0  0
 17 18  1  0  0  0  0
 17 51  1  0  0  0  0
 17 52  1  0  0  0  0
 18 49  1  0  0  0  0
 18 50  1  0  0  0  0
 19 20  1  0  0  0  0
 19 47  1  0  0  0  0
 19 48  1  0  0  0  0
 20 53  1  0  0  0  0
 20 54  1  0  0  0  0
M  END
> <PUBCHEM_COMPOUND_CID>
85851209

> <PUBCHEM_CONFORMER_RMSD>
0.8

> <PUBCHEM_CONFORMER_DIVERSEORDER>
1
317
293
11
259
28
271
87
299
168
119
199
40
22
281
330
173
68
201
86
157
35
19
114
257
220
323
267
171
305
295
120
149
209
206
54
326
242
319
195
30
110
273
274
26
20
204
21
133
285
301
181
253
187
161
178
260
202
34
145
290
103
31
41
255
233
126
311
147
226
90
143
4
203
247
303
251
131
70
136
104
231
7
282
125
80
66
216
248
314
81
94
72
170
210
294
333
315
225
99
218
98
278
331
121
287
176
38
23
197
116
241
313
150
162
9
25
153
111
246
300
158
56
101
79
85
163
122
154
164
194
146
105
327
2
159
117
250
53
13
32
137
39
223
329
211
232
82
140
100
55
106
148
48
156
217
198
269
189
134
152
307
243
144
166
14
245
96
71
200
165
309
15
208
280
175
279
29
51
17
185
191
64
320
160
10
27
18
277
335
142
256
288
321
132
91
151
3
182
179
65
37
93
50
263
337
24
45
239
6
284
73
77
298
108
308
109
268
58
167
52
227
36
60
63
318
155
325
328
236
92
138
59
336
286
262
43
252
33
324
276
266
237
219
112
212
46
130
306
16
183
83
249
316
339
8
214
47
184
49
310
205
89
264
192
222
296
254
334
207
123
75
95
139
272
302
42
84
12
174
169
172
180
177
115
102
57
76
291
97
244
67
62
213
221
5
118
74
69
258
228
332
196
312
224
338
113
240
127
238
190
283
44
292
129
186
275
261
297
135
215
230
265
304
289
61
322
78
128
270
235
234
124
188
193
229
141
107
88

> <PUBCHEM_MMFF94_PARTIAL_CHARGES>
0

> <PUBCHEM_EFFECTIVE_ROTOR_COUNT>
7

> <PUBCHEM_PHARMACOPHORE_FEATURES>
4
5 1 4 6 7 9 rings
5 11 14 15 17 18 rings
5 12 13 16 19 20 rings
5 2 3 5 8 10 rings

> <PUBCHEM_HEAVY_ATOM_COUNT>
20

> <PUBCHEM_ATOM_DEF_STEREO_COUNT>
0

> <PUBCHEM_ATOM_UDEF_STEREO_COUNT>
4

> <PUBCHEM_BOND_DEF_STEREO_COUNT>
0

> <PUBCHEM_BOND_UDEF_STEREO_COUNT>
0

> <PUBCHEM_ISOTOPIC_ATOM_COUNT>
0

> <PUBCHEM_COMPONENT_COUNT>
1

> <PUBCHEM_CACTVS_TAUTO_COUNT>
1

> <PUBCHEM_CONFORMER_ID>
051DFC4900000001

> <PUBCHEM_MMFF94_ENERGY>
45.2588

> <PUBCHEM_FEATURE_SELFOVERLAP>
20.3

> <PUBCHEM_SHAPE_FINGERPRINT>
10 15 18114187445152090761
10014705 185 18411701002066522755
10050765 1 18410575084701177959
10411042 1 17689717884842697499
10595046 47 18342171151339028463
11089746 13 18271800237833380932
11595378 159 16805590430948288116
12107183 9 18262788563634726938
12293681 160 17846501430479805418
12390115 104 18340219560521605995
12596602 18 17530681005121287921
12760667 363 8430316831818928825
12769317 202 18342166757118025272
12788726 201 17489309616488676953
13167372 99 18410291394000461704
13402501 40 18410572885640576925
13785724 45 17977096856911083970
13955234 65 18116151060855387410
14251732 16 18408042935845445043
14251751 18 9007059067034999864
14257110 125 18409729568837640559
14528608 73 18272086110476768645
14933364 13 18410578383198157120
15048467 5 18410855464423259012
15183329 4 18130796633636708552
15188451 53 15575293094224566553
15196674 1 18410855464423531842
15419008 145 18116138988451164000
15475509 35 16081925911394448114
15519825 34 16371586915672602689
15778101 99 18410014364045818454
15961568 22 18335140869110993093
16760501 71 18335707165128481673
17780758 139 12035442831707592719
17834072 32 18410575106143190158
17959699 21 18412544310173100752
17980427 23 17968380164004310838
18335252 98 18411704309972419803
18608769 82 18339927138412028771
19611394 137 17969517076929662147
200 152 7853572409573357039
20281389 69 18333448737831910712
20374829 77 9799691498041133903
20621476 66 18335987553705215924
20645477 56 18335138691799326703
21033648 144 18260822675445909735
21033648 29 18270673307488081976
21033650 10 14548749365630439771
21236236 1 18340485668743868887
21279426 13 18342746213126254022
21304253 335 18334019388651008452
21315764 268 18188485753429654589
21421861 104 17750501907024223954
22289505 5 18131635586900019584
23198884 109 16343989100478921201
23272321 79 18410573985847731437
23402655 69 18273210893760971918
23559900 14 18271525274143915038
245318 6 17678756745407268708
25122255 55 9079117786481291129
268830 7 18188194438466740046
270888 7 18410854360616845828
2838139 119 18341607126957954996
2916195 48 18334294254100213969
293599 30 18411419513888184675
3014063 24 10881691230081669625
335352 9 18411420597243583374
3472631 163 18342177777792792204
34797466 226 17988931042003470615
34934 24 18410853265400282787
351380 3 9223230736731336745
3545911 37 18411421708616472942
4073 2 18041285456365372810
4325135 7 18343861139550028079
4340502 62 17167866343967433915
465052 167 8070023385150465152
474 4 17967819365934661206
5104073 3 18113901541800769995
56616090 163 18413108376739099042
59682541 35 18188221961835264601
59682541 52 17131563730293853284
5969126 39 18125435556896049407
59755656 215 18340494379000394342
59755656 520 17530682121343578762
6327066 14 18409725124348570237
633830 44 18410849949960162078
636775 72 18269269239740636528
7062679 6 18335424586049621220
77188 2 17545601154562261590
7808743 9 18409726287704263667
90127 26 18263374611589605531

> <PUBCHEM_SHAPE_MULTIPOLES>
411.59
16.15
2.7
0.66
0
0.02
0
12.51
0
0
0
0
0
0.1

> <PUBCHEM_SHAPE_SELFOVERLAP>
858.849

> <PUBCHEM_SHAPE_VOLUME>
224.5

> <PUBCHEM_COORDINATE_TYPE>
2
5
10

$$$$
