137209
  -OEChem-06152021333D

 50 52  0     0  0  0  0  0  0999 V2000
    1.4654   -0.0139   -0.2481 C   0  0  0  0  0  0  0  0  0  0  0  0
   -1.4652   -0.0139    0.2464 C   0  0  0  0  0  0  0  0  0  0  0  0
    2.9094   -0.0137    0.2500 C   0  0  0  0  0  0  0  0  0  0  0  0
   -2.9097   -0.0137   -0.2504 C   0  0  0  0  0  0  0  0  0  0  0  0
    0.7310   -1.2767    0.2203 C   0  0  0  0  0  0  0  0  0  0  0  0
    0.7311    1.2486    0.2204 C   0  0  0  0  0  0  0  0  0  0  0  0
   -0.7311   -1.2765   -0.2224 C   0  0  0  0  0  0  0  0  0  0  0  0
   -0.7310    1.2487   -0.2226 C   0  0  0  0  0  0  0  0  0  0  0  0
    3.6560   -1.2570   -0.2520 C   0  0  0  0  0  0  0  0  0  0  0  0
    3.6318    1.2692   -0.1826 C   0  0  0  0  0  0  0  0  0  0  0  0
   -3.6558   -1.2570    0.2523 C   0  0  0  0  0  0  0  0  0  0  0  0
   -3.6318    1.2693    0.1830 C   0  0  0  0  0  0  0  0  0  0  0  0
    5.1179   -1.2530    0.1892 C   0  0  0  0  0  0  0  0  0  0  0  0
    5.0939    1.2690    0.2581 C   0  0  0  0  0  0  0  0  0  0  0  0
   -5.1180   -1.2531   -0.1874 C   0  0  0  0  0  0  0  0  0  0  0  0
   -5.0942    1.2690   -0.2564 C   0  0  0  0  0  0  0  0  0  0  0  0
    5.8303    0.0274   -0.2352 C   0  0  0  0  0  0  0  0  0  0  0  0
   -5.8301    0.0274    0.2376 C   0  0  0  0  0  0  0  0  0  0  0  0
    1.4683   -0.0128   -1.3476 H   0  0  0  0  0  0  0  0  0  0  0  0
   -1.4673   -0.0126    1.3458 H   0  0  0  0  0  0  0  0  0  0  0  0
    2.9062   -0.0428    1.3491 H   0  0  0  0  0  0  0  0  0  0  0  0
   -2.9075   -0.0428   -1.3496 H   0  0  0  0  0  0  0  0  0  0  0  0
    0.7812   -1.3608    1.3133 H   0  0  0  0  0  0  0  0  0  0  0  0
    1.1841   -2.1809   -0.1970 H   0  0  0  0  0  0  0  0  0  0  0  0
    1.1803    2.1529   -0.2010 H   0  0  0  0  0  0  0  0  0  0  0  0
    0.7823    1.3345    1.3132 H   0  0  0  0  0  0  0  0  0  0  0  0
   -0.7813   -1.3603   -1.3154 H   0  0  0  0  0  0  0  0  0  0  0  0
   -1.1843   -2.1809    0.1946 H   0  0  0  0  0  0  0  0  0  0  0  0
   -1.1802    2.1532    0.1987 H   0  0  0  0  0  0  0  0  0  0  0  0
   -0.7823    1.3342   -1.3154 H   0  0  0  0  0  0  0  0  0  0  0  0
    3.6066   -1.3123   -1.3467 H   0  0  0  0  0  0  0  0  0  0  0  0
    3.2132   -2.1769    0.1412 H   0  0  0  0  0  0  0  0  0  0  0  0
    3.1758    2.1574    0.2648 H   0  0  0  0  0  0  0  0  0  0  0  0
    3.5794    1.3855   -1.2724 H   0  0  0  0  0  0  0  0  0  0  0  0
   -3.6052   -1.3123    1.3470 H   0  0  0  0  0  0  0  0  0  0  0  0
   -3.2133   -2.1768   -0.1414 H   0  0  0  0  0  0  0  0  0  0  0  0
   -3.1762    2.1575   -0.2648 H   0  0  0  0  0  0  0  0  0  0  0  0
   -3.5783    1.3856    1.2727 H   0  0  0  0  0  0  0  0  0  0  0  0
    5.6344   -2.1201   -0.2379 H   0  0  0  0  0  0  0  0  0  0  0  0
    5.1707   -1.3553    1.2802 H   0  0  0  0  0  0  0  0  0  0  0  0
    5.1456    1.3124    1.3532 H   0  0  0  0  0  0  0  0  0  0  0  0
    5.5935    2.1678   -0.1207 H   0  0  0  0  0  0  0  0  0  0  0  0
   -5.6341   -2.1201    0.2402 H   0  0  0  0  0  0  0  0  0  0  0  0
   -5.1719   -1.3553   -1.2783 H   0  0  0  0  0  0  0  0  0  0  0  0
   -5.1469    1.3123   -1.3514 H   0  0  0  0  0  0  0  0  0  0  0  0
   -5.5936    2.1678    0.1228 H   0  0  0  0  0  0  0  0  0  0  0  0
    6.8544    0.0265    0.1547 H   0  0  0  0  0  0  0  0  0  0  0  0
    5.9044    0.0581   -1.3292 H   0  0  0  0  0  0  0  0  0  0  0  0
   -6.8546    0.0265   -0.1513 H   0  0  0  0  0  0  0  0  0  0  0  0
   -5.9032    0.0580    1.3317 H   0  0  0  0  0  0  0  0  0  0  0  0
  1  3  1  0  0  0  0
  1  5  1  0  0  0  0
  1  6  1  0  0  0  0
  1 19  1  0  0  0  0
  2  4  1  0  0  0  0
  2  7  1  0  0  0  0
  2  8  1  0  0  0  0
  2 20  1  0  0  0  0
  3  9  1  0  0  0  0
  3 10  1  0  0  0  0
  3 21  1  0  0  0  0
  4 11  1  0  0  0  0
  4 12  1  0  0  0  0
  4 22  1  0  0  0  0
  5  7  1  0  0  0  0
  5 23  1  0  0  0  0
  5 24  1  0  0  0  0
  6  8  1  0  0  0  0
  6 25  1  0  0  0  0
  6 26  1  0  0  0  0
  7 27  1  0  0  0  0
  7 28  1  0  0  0  0
  8 29  1  0  0  0  0
  8 30  1  0  0  0  0
  9 13  1  0  0  0  0
  9 31  1  0  0  0  0
  9 32  1  0  0  0  0
 10 14  1  0  0  0  0
 10 33  1  0  0  0  0
 10 34  1  0  0  0  0
 11 15  1  0  0  0  0
 11 35  1  0  0  0  0
 11 36  1  0  0  0  0
 12 16  1  0  0  0  0
 12 37  1  0  0  0  0
 12 38  1  0  0  0  0
 13 17  1  0  0  0  0
 13 39  1  0  0  0  0
 13 40  1  0  0  0  0
 14 17  1  0  0  0  0
 14 41  1  0  0  0  0
 14 42  1  0  0  0  0
 15 18  1  0  0  0  0
 15 43  1  0  0  0  0
 15 44  1  0  0  0  0
 16 18  1  0  0  0  0
 16 45  1  0  0  0  0
 16 46  1  0  0  0  0
 17 47  1  0  0  0  0
 17 48  1  0  0  0  0
 18 49  1  0  0  0  0
 18 50  1  0  0  0  0
M  END
> <PUBCHEM_COMPOUND_CID>
137209

> <PUBCHEM_CONFORMER_RMSD>
0.8

> <PUBCHEM_CONFORMER_DIVERSEORDER>
1
7
4
5
3
2
9
8
6

> <PUBCHEM_MMFF94_PARTIAL_CHARGES>
0

> <PUBCHEM_EFFECTIVE_ROTOR_COUNT>
5.6

> <PUBCHEM_PHARMACOPHORE_FEATURES>
3
6 1 2 5 6 7 8 rings
6 3 9 10 13 14 17 rings
6 4 11 12 15 16 18 rings

> <PUBCHEM_HEAVY_ATOM_COUNT>
18

> <PUBCHEM_ATOM_DEF_STEREO_COUNT>
0

> <PUBCHEM_ATOM_UDEF_STEREO_COUNT>
0

> <PUBCHEM_BOND_DEF_STEREO_COUNT>
0

> <PUBCHEM_BOND_UDEF_STEREO_COUNT>
0

> <PUBCHEM_ISOTOPIC_ATOM_COUNT>
0

> <PUBCHEM_COMPONENT_COUNT>
1

> <PUBCHEM_CACTVS_TAUTO_COUNT>
1

> <PUBCHEM_CONFORMER_ID>
000217F900000001

> <PUBCHEM_MMFF94_ENERGY>
24.76

> <PUBCHEM_FEATURE_SELFOVERLAP>
15.223

> <PUBCHEM_SHAPE_FINGERPRINT>
10595046 47 18411981381515135140
11287383 113 18411419522662800618
11315181 36 18131354115806800465
11401426 45 18410292510401554837
12107183 9 17690280404517433931
12236239 1 18410573985151457634
12403259 415 18410564093847653836
12516196 113 18060135453013911145
13167823 11 18410853265400269795
13288520 33 18411700993856123487
13533116 47 13758087255714426212
13862211 1 18410570686616957575
1420 363 18187088364360667779
14251732 16 18338797926219776018
14341114 176 18409454691289412241
14528608 73 18410856577130960214
15196674 1 18410573985151451137
15788980 27 18113340808018401817
17834072 33 18342174483515932958
17834076 25 16660646254159776216
17844677 252 18411706482154960409
19489759 90 17167579380344141749
200 152 18202562873629540929
20281389 69 18334011679459355885
20621476 66 18270687455263640873
20645477 70 18341896251841359414
21236236 1 18341332198065616033
21267235 1 18410581686028085702
21279426 13 18266177236220651071
21709351 56 18334007311667280213
220451 1 18411144631686461762
23035841 295 18335421253023007219
23402539 116 18272083911675111279
23402655 69 18272368667779963102
23536379 177 18410292497310950825
23557571 272 17458625562423943469
23559900 14 18342171202250999184
239999 70 18272093777848343798
300161 21 18334570239655085129
3004659 81 18335422349062398886
34797466 226 17060063687172080916
351380 180 18409166623247888256
3545911 37 18410857659151423852
4073 2 18040722514827650394
4214541 1 18410575072189880525
42788 4 18410855464423129094
4340502 62 16588024606430573274
4463277 17 18410856559639861028
474229 33 18413108363938664623
5104073 3 18410575080378668544
5283173 99 18335135337256334413
5374978 207 18410568484042228240
542803 24 18410573989446437935
59755656 215 18339367375081754478
59755656 520 17530962505562327786
7495541 125 17632572803084996506
77779 3 18410856563934763364
9971528 1 17894632560881517636

> <PUBCHEM_SHAPE_MULTIPOLES>
370.43
14.44
1.68
0.67
0
0
0
0.09
-0.01
0
0
0
0
0.08

> <PUBCHEM_SHAPE_SELFOVERLAP>
750.769

> <PUBCHEM_SHAPE_VOLUME>
209.2

> <PUBCHEM_COORDINATE_TYPE>
2
5
10

$$$$
