15417
  -OEChem-06152021263D

 28 29  0     0  0  0  0  0  0999 V2000
   -0.7078   -0.0123    0.2750 C   0  0  0  0  0  0  0  0  0  0  0  0
    0.7078   -0.0123   -0.2750 C   0  0  0  0  0  0  0  0  0  0  0  0
   -1.5302    1.1890   -0.1806 C   0  0  0  0  0  0  0  0  0  0  0  0
   -1.5455   -1.1868   -0.2204 C   0  0  0  0  0  0  0  0  0  0  0  0
    1.5302    1.1890    0.1806 C   0  0  0  0  0  0  0  0  0  0  0  0
    1.5456   -1.1867    0.2204 C   0  0  0  0  0  0  0  0  0  0  0  0
   -2.9742    0.7699    0.0778 C   0  0  0  0  0  0  0  0  0  0  0  0
   -2.9818   -0.7597    0.0640 C   0  0  0  0  0  0  0  0  0  0  0  0
    2.9741    0.7698   -0.0778 C   0  0  0  0  0  0  0  0  0  0  0  0
    2.9818   -0.7597   -0.0641 C   0  0  0  0  0  0  0  0  0  0  0  0
   -0.6852   -0.0294    1.3738 H   0  0  0  0  0  0  0  0  0  0  0  0
    0.6851   -0.0294   -1.3739 H   0  0  0  0  0  0  0  0  0  0  0  0
   -1.3873    1.3781   -1.2518 H   0  0  0  0  0  0  0  0  0  0  0  0
   -1.2733    2.1054    0.3597 H   0  0  0  0  0  0  0  0  0  0  0  0
   -1.2952   -2.1254    0.2838 H   0  0  0  0  0  0  0  0  0  0  0  0
   -1.4116   -1.3372   -1.2988 H   0  0  0  0  0  0  0  0  0  0  0  0
    1.3872    1.3781    1.2517 H   0  0  0  0  0  0  0  0  0  0  0  0
    1.2733    2.1054   -0.3597 H   0  0  0  0  0  0  0  0  0  0  0  0
    1.2952   -2.1252   -0.2837 H   0  0  0  0  0  0  0  0  0  0  0  0
    1.4118   -1.3370    1.2989 H   0  0  0  0  0  0  0  0  0  0  0  0
   -3.6498    1.1871   -0.6758 H   0  0  0  0  0  0  0  0  0  0  0  0
   -3.3089    1.1336    1.0561 H   0  0  0  0  0  0  0  0  0  0  0  0
   -3.3052   -1.1370    1.0411 H   0  0  0  0  0  0  0  0  0  0  0  0
   -3.6726   -1.1576   -0.6861 H   0  0  0  0  0  0  0  0  0  0  0  0
    3.6497    1.1870    0.6758 H   0  0  0  0  0  0  0  0  0  0  0  0
    3.3089    1.1337   -1.0561 H   0  0  0  0  0  0  0  0  0  0  0  0
    3.3051   -1.1370   -1.0412 H   0  0  0  0  0  0  0  0  0  0  0  0
    3.6725   -1.1576    0.6861 H   0  0  0  0  0  0  0  0  0  0  0  0
  1  2  1  0  0  0  0
  1  3  1  0  0  0  0
  1  4  1  0  0  0  0
  1 11  1  0  0  0  0
  2  5  1  0  0  0  0
  2  6  1  0  0  0  0
  2 12  1  0  0  0  0
  3  7  1  0  0  0  0
  3 13  1  0  0  0  0
  3 14  1  0  0  0  0
  4  8  1  0  0  0  0
  4 15  1  0  0  0  0
  4 16  1  0  0  0  0
  5  9  1  0  0  0  0
  5 17  1  0  0  0  0
  5 18  1  0  0  0  0
  6 10  1  0  0  0  0
  6 19  1  0  0  0  0
  6 20  1  0  0  0  0
  7  8  1  0  0  0  0
  7 21  1  0  0  0  0
  7 22  1  0  0  0  0
  8 23  1  0  0  0  0
  8 24  1  0  0  0  0
  9 10  1  0  0  0  0
  9 25  1  0  0  0  0
  9 26  1  0  0  0  0
 10 27  1  0  0  0  0
 10 28  1  0  0  0  0
M  END
> <PUBCHEM_COMPOUND_CID>
15417

> <PUBCHEM_CONFORMER_RMSD>
0.6

> <PUBCHEM_CONFORMER_DIVERSEORDER>
1
2
3

> <PUBCHEM_MMFF94_PARTIAL_CHARGES>
0

> <PUBCHEM_EFFECTIVE_ROTOR_COUNT>
3

> <PUBCHEM_PHARMACOPHORE_FEATURES>
2
5 1 3 4 7 8 rings
5 2 5 6 9 10 rings

> <PUBCHEM_HEAVY_ATOM_COUNT>
10

> <PUBCHEM_ATOM_DEF_STEREO_COUNT>
0

> <PUBCHEM_ATOM_UDEF_STEREO_COUNT>
0

> <PUBCHEM_BOND_DEF_STEREO_COUNT>
0

> <PUBCHEM_BOND_UDEF_STEREO_COUNT>
0

> <PUBCHEM_ISOTOPIC_ATOM_COUNT>
0

> <PUBCHEM_COMPONENT_COUNT>
1

> <PUBCHEM_CACTVS_TAUTO_COUNT>
1

> <PUBCHEM_CONFORMER_ID>
00003C3900000001

> <PUBCHEM_MMFF94_ENERGY>
15.7657

> <PUBCHEM_FEATURE_SELFOVERLAP>
10.149

> <PUBCHEM_SHAPE_FINGERPRINT>
10608611 8 18410569587105453216
12897270 3 18410291445033407125
12932764 1 18410857663446391140
14144814 61 18411136917940840675
14325111 11 18410575088958143649
14390081 3 18412542128171595081
15310529 11 18412824702738931399
15775835 57 18410862057198064868
16945 1 18410570686616567814
17844478 74 18113910350915570577
19973954 147 18410857663446741920
20201158 50 18413107234193382671
20645477 70 18338511950460782975
20871998 184 18129949008703260063
23402539 116 18059000706165496253
23402655 69 18341602686473552045
23552423 10 18261111897878743127
2748010 2 18410291419258354701
3248919 1 18410846664035165575
369184 2 18411418414714134553
5084963 1 18411700993186346952

> <PUBCHEM_SHAPE_MULTIPOLES>
205.8
5.21
1.41
0.65
0
0.01
0
0
0
0
0
0
0
-0.02

> <PUBCHEM_SHAPE_SELFOVERLAP>
415.274

> <PUBCHEM_SHAPE_VOLUME>
117

> <PUBCHEM_COORDINATE_TYPE>
2
5
10

$$$$
